Getting croco executable from /home/gfearon/lustre/somisana-croco/configs/sa_west_02_derefined/croco_v2.1.1_cpl_ww3/RUN_01/CROCO_IN/COMP
Getting croco_grd.nc from /home/gfearon/lustre/somisana-croco/configs/sa_west_02_derefined/croco_v2.1.1_cpl_ww3/CROCO_GRID
Getting croco_inter.in from /home/gfearon/lustre/somisana-croco/configs/sa_west_02_derefined/croco_v2.1.1_cpl_ww3/RUN_01/CROCO_IN
Getting croco_ini_GLORYS_Y2010M01.nc from /home/gfearon/lustre/somisana-croco/configs/sa_west_02_derefined/croco_v2.1.1_cpl_ww3/CROCO_GLORYS
using a cold start for WW3

                   *** WAVEWATCH III Grid preprocessor ***    
               ===============================================

  Grid name : SWCAPE_02_derefined           


  Spectral discretization : 
 --------------------------------------------------
       Number of directions        :  24
       Directional increment (deg.):  15.0
       First direction       (deg.):   0.0
       Number of frequencies       :  32
       Frequency range        (Hz) :   0.0373-0.7159
       Increment factor            :   1.100


  Model definition :
 --------------------------------------------------
       Dry run (no calculations)   :  ---/NO
       Propagation in X-direction  :  YES/--
       Propagation in Y-direction  :  YES/--
       Refraction                  :  YES/--
       Current-induced k-shift     :  YES/--
       Source term calc. and int.  :  YES/--


  Time steps : 
 --------------------------------------------------
       Maximum global time step      (s) : 1200.00
       Maximum CFL time step X-Y     (s) :  120.00
       Maximum CFL time step k-theta (s) :  120.00
       Minimum source term time step (s) :   20.00

  Preprocessing namelists ...
  Preprocessing namelists finished.


  Linear input (C&M-R 82) (default values) :  
 --------------------------------------------------
       CLIN                        :   80.00
       Factor for fPM in filter    :    1.00
       Factor for fh in filter     :    0.50


  Wind input (WAM 4+) (default values) :  
 --------------------------------------------------
       minimum Charnock coeff.     :    0.0095
       betamax                     :    1.430
       power of cos. in wind input :    2.000
       z0max                       :    0.000
       zalp                        :    0.006
       Height of input wind (m)    :   10.00
       wind stress sheltering      :    0.300
       swell attenuation param.    :    1
       swell attenuation factor    :    0.660
       swell attenuation factor2   :   -0.018
       swell attenuation factor3   :    0.022
       critical Reynolds number    : 150000.0
       swell attenuation factor5   :    1.200
       swell attenuation factor6   :    0.000
       swell attenuation factor7   :    360000.000
       ratio of z0 for orb. & mean :    0.040


  Nonlinear interactions (DIA) (user def. values) :
 --------------------------------------------------
       Lambda                      :    0.25
       Prop. constant              : 0.250E+08
       kd conversion factor        :    0.75
       minimum kd                  :    0.50
       shallow water constants     :    5.50  0.83 -1.25


 Dissipation (Ardhuin et al. 2010) (default values) :  
 --------------------------------------------------
       SDSC2, SDSBCK, SDSCUM       : -0.220E-04  0.000E+00 -0.403E+00
       Power of k in mean k        :    0.50


  Bottom friction  (SHOWEX)  

  Bottom friction  (SHOWEX)  (default values) :  
 --------------------------------------------------
       SEDMAPD50, SED_D50_UNIFORM        :  F 0.000200
       RIPFAC1,RIPFAC2,RIPFAC3,RIPFAC4   :  0.4000 -2.5000  1.2000  0.0500
       SIGDEPTH, BOTROUGHMIN, BOTROUGHFAC:  0.0500  0.0100  1.0000


  Surf breaking (B&J 1978) (default values) :  
 --------------------------------------------------
       alpha                       :   1.000
       gamma                       :   0.730
       Using Hmax/d ratio only.
 

  Triad interactions not defined.


  Bottom scattering not defined.


  Propagation scheme : 
 --------------------------------------------------
       Type of scheme (structured) : 3rd order UQ + GSE averaging  
                                     (default values)  
       CFLmax depth refraction     :    0.700
       Averaging area factor Cg    :    1.50
       Averaging area factor theta :    1.50
 

  Ice scattering not defined.


  Shoreline reflection     (user def. values) :
 --------------------------------------------------

  Spectral output on full grid (default values) :  
 --------------------------------------------------
       Second order pressure at K=0:   0   1  15
       Spectrum of Uss             :   0   1  32
       Frequency spectrum          :   0   1  32
       Partions of Uss             :   0   1
       Partition wavenumber # 1   :  0.063

  Miscellaneous (user def. values) :
 --------------------------------------------------
 *** WAVEWATCH-III WARNING IN W3GRID :
     CICE0.NE.CICEN requires FLAGTR>2
     Parameters corrected: CICE0 = CICEN

       Ice concentration cut-offs  :    0.75  0.75
       Wind input reduction factor in presence of 
         ice :  1.00
         (0.0==> no reduction and 1.0==> no wind
         input with 100% ice cover)
       Space-time extremes DX-Y set to default 1000 m
       Space-time extremes Dt set to default 1200 s
       Compression of track output  :   T

    Dynamic source term integration scheme :
       Xp                      (-) :    0.150
       Xr                      (-) :    0.100
       Xfilt                   (-) :    0.050

    Wave field partitioning :
       Levels                  (-) :  100
       Minimum wave height     (m) :    0.050
       Wind area multiplier    (-) :    1.700
       Cut-off wind sea fract. (-) :    0.333
       Combine wind seas           :  YES/--
       Number of swells in fld out :    5
       Partitioning method         :  WW3 default                                  

    Miche-style limiting wave height :
       Hs,max/d factor         (-) :    1.600
       Hrms,max/d factor       (-) :    1.131
       Limiter activated           :  YES/--
 

  Equivalent namelists ...

  &SLN1 CLIN =  80.0, RFPM =  1.00, RFHF =  0.50 /
  &SIN4 ZWND = 10.0, ALPHA0 = 0.00950, Z0MAX = 0.00000, BETAMAX = 1.43000,
        SINTHP = 2.00000, ZALP = 0.00600, TAUWSHELTER = 0.30000, SWELLFPAR = 1,
        SWELLF = 0.66000, SWELLF2 =-0.01800, SWELLF3 = 0.02200, SWELLF4 = 150000.0,
        SWELLF5 = 1.20000, SWELLF6 = 0.00000, SWELLF7 =   360000.00, Z0RAT = 0.04000, SINBR = 0.00000  /
  &SNL1 LAMBDA =  0.250, NLPROP = 0.250E+08, KDCONV =  0.750, KDMIN =  0.500,
        SNLCS1 =  5.500, SNLCS2 =  0.833, SNLCS3 =  -1.250 /
  &SDS4 SDSC1 =  0.0000E+00, SDSC2 = -0.2200E-04, SDSCUM = -0.40, 
        SDSC4 =  1.00, SDSC5 =  0.0000E+00, SDSC6 =  0.3000E+00,
        WNMEANP =0.50, FXPM3 =4.00, FXFM3 =2.50, FXFMAGE = 0.000, FXINCUT = 0.000, FXDSCUT = 0.000, 
        SDSBINT =  0.3000E+00, SDSBCK =  0.0000E+00, SDSABK = 1.500, SDSPBK = 4.000, 
        SDSHCK = 1.50, SDSBR =   0.9000E-03, SDSSTRAIN = 0.0, SDSSTRAINA = 0.0, SDSSTRAIN2 =  0.0, 
        SDSBR2 = 0.80, SDSP = 2.00, SDSISO = 2, SDSCOS =2.0, SDSDTH = 80.0, 
        SDSBRF1 =  0.50, SDSBRFDF = 0, 
        SDSBM0 =  1.00, SDSBM1 = 0.00, SDSBM2 = 0.00, SDSBM3 = 0.00, SDSBM4 = 0.00, 
        WHITECAPWIDTH = 0.30, SDSLFGEN =  0.00, SDSHFGEN =  0.00 /
  &SBT4 SEDMAPD50 =  F, SED_D50_UNIFORM =0.000200,
        RIPFAC1 =  0.4000, RIPFAC2 = -2.5000, RIPFAC3 =  1.2000, RIPFAC4 =  0.0500,
        SIGDEPTH =  0.0500, BOTROUGHMIN =  0.0100, BOTROUGHFAC = 1.0 /
  &SDB1 BJALFA =  1.000, BJGAM =  0.730, BJFLAG = .TRUE. /
  &PRO3 CFLTM = 0.70, WDTHCG = 1.50, WDTHTH = 1.50 /
  &UNST UGOBCAUTO =  T, UGOBCDEPTH = -10.000, UGOBCFILE=unset,
,  EXPFSN =  T,EXPFSPSI =  F,  EXPFSFCT =  F,IMPFSN =  F,EXPTOTAL=  F,  IMPTOTAL=  F,IMPREFRACTION=  F,  IMPFREQSHIFT=  F, IMPSOURCE=  F,  SETUP_APPLY_WLV=  F,  JGS_TERMINATE_MAXITER=  T,  JGS_TERMINATE_DIFFERENCE=  T,  JGS_TERMINATE_NORM=  F,  JGS_LIMITER=  F,  JGS_USE_JACOBI=  T,  JGS_BLOCK_GAUSS_SEIDEL=  T,  JGS_MAXITER=  100,  JGS_PMIN=   1.000,  JGS_DIFF_THR=   0.000,  JGS_NORM_THR=   0.000,  JGS_NLEVEL=  0,  JGS_SOURCE_NONLINEAR=  F

  &OUTS P2SF  = 0, I1P2SF = 1, I2P2SF = 15,
        US3D  = 0, I1US3D =  1, I2US3D = 32,
        USSP  = 0, IUSSP  =  1,
        E3D   = 0, I1E3D  =  1, I2E3D  = 32,
        TH1MF = 0, I1TH1M =  1, I2TH1M = 32,
        STH1MF= 0, I1STH1M=  1, I2STH1M= 32,
        TH2MF = 0, I1TH2M =  1, I2TH2M = 32,
        STH2MF= 0, I1STH2M=  1, I2STH2M= 32 /
  &REF1 REFCOAST = 0.10, REFFREQ = 1.00, REFSLOPE =0.150, REFMAP = 0.0, REFMAPD = 0.0, REFSUBGRID = 0.00,
        REFRMAX= 1.00, REFFREQPOW = 3.00, REFICEBERG = 0.00, REFCOSP_STRAIGHT = 4.0 /
  &REF1 REFCOAST = 0.00, REFFREQ =
  &MISC CICE0 = 0.750, CICEN = 0.750, LICE =      0.0, PMOVE = 0.500,
        XSEED = 1.000, FLAGTR = 0, XP = 0.150, XR = 0.100, XFILT = 0.050
        IHM =  100, HSPM = 0.050, WSM = 1.700, WSC = 0.333, FLC = .TRUE.
        NOSW =  5, FMICHE = 1.600, RWNDC = 1.000, WCOR1 = 99.00, WCOR2 =  0.00,
        FACBERG = 1.0, GSHIFT =   0.000E+00, STDX =   -1.00, STDY =  -1.00,
        STDT =   -1.00, ICEHMIN = 0.20, ICEHFAC = 1.00,
        ICEHINIT = 0.50, ICEDISP =  F, ICEHDISP = 0.60,
        ICESLN =   1.00, ICEWIND =   1.00, ICESNL =   1.00, ICESDS =  1.00,
        ICEDDISP = 80.00, ICEFDISP =  2.00, NOLEAP =   F , TRCKCMPR =   T,
        BTBET  =   1.20 /

  Equivalent namelists finished.


  The spatial grid: 
 --------------------------------------------------

       Grid type                   : curvilinear
       Coordinate system           : spherical
       Index closure type          : none
       Dimensions                  :     26      90

       X-coordinate unit           :    21
       Scale factor                :    1.0000
       Add offset                  :  0.0000E+00
       Layout indicator            :     1
       Format indicator            :     1
       File name                   : lon.dat

       Y-coordinate unit           :    22
       Scale factor                :    1.0000
       Add offset                  :  0.0000E+00
       Layout indicator            :     1
       Format indicator            :     1
       File name                   : lat.dat

       Bottom level unit           :    50
       Limiting depth          (m) :   -0.10
       Minimum depth           (m) :    0.30
       Scale factor                :    1.00
       Layout indicator            :     1
       Format indicator            :     1
       File name                   : depth.dat

       Sub-grid information        : Not available.

       Mask information            : From file.
       Mask unit                   :    60
       Layout indicator            :     1
       Format indicator            :     1
       File name                   : mask.dat                                                    

  Input boundary points : 
 --------------------------------------------------
       Number of boundary points   :   138

         Nr.|   IX  |   IY  |  Long.  |   Lat.  
       -----|-------|-------|---------|---------
          1 |     1 |     1 |   18.56 |  -36.09
          2 |     2 |     1 |   18.64 |  -36.03
          3 |     3 |     1 |   18.71 |  -35.96
          4 |     4 |     1 |   18.79 |  -35.90
          5 |     5 |     1 |   18.86 |  -35.84
          6 |     6 |     1 |   18.94 |  -35.77
          7 |     7 |     1 |   19.01 |  -35.71
          8 |     8 |     1 |   19.09 |  -35.64
          9 |     9 |     1 |   19.16 |  -35.58
         10 |    10 |     1 |   19.23 |  -35.52
         11 |    11 |     1 |   19.30 |  -35.46
         12 |    12 |     1 |   19.36 |  -35.41
         13 |    13 |     1 |   19.42 |  -35.36
         14 |    14 |     1 |   19.47 |  -35.31
         15 |    15 |     1 |   19.52 |  -35.27
         16 |    16 |     1 |   19.57 |  -35.23
         17 |    17 |     1 |   19.61 |  -35.20
         18 |    18 |     1 |   19.65 |  -35.16
         19 |    19 |     1 |   19.68 |  -35.13
         20 |    20 |     1 |   19.72 |  -35.10
         21 |    21 |     1 |   19.76 |  -35.07
         22 |    22 |     1 |   19.80 |  -35.03
         23 |    23 |     1 |   19.84 |  -35.00
         24 |    24 |     1 |   19.87 |  -34.97
         25 |    25 |     1 |   19.92 |  -34.93
         26 |     1 |     2 |   18.45 |  -36.01
         27 |     1 |     3 |   18.35 |  -35.93
         28 |     1 |     4 |   18.26 |  -35.86
         29 |     1 |     5 |   18.18 |  -35.79
         30 |     1 |     6 |   18.11 |  -35.73
         31 |     1 |     7 |   18.04 |  -35.68
         32 |     1 |     8 |   17.98 |  -35.63
         33 |     1 |     9 |   17.93 |  -35.58
         34 |     1 |    10 |   17.87 |  -35.53
         35 |     1 |    11 |   17.82 |  -35.49
         36 |     1 |    12 |   17.76 |  -35.44
         37 |     1 |    13 |   17.71 |  -35.40
         38 |     1 |    14 |   17.66 |  -35.35
         39 |     1 |    15 |   17.61 |  -35.30
         40 |     1 |    16 |   17.56 |  -35.25
         41 |     1 |    17 |   17.51 |  -35.21
         42 |     1 |    18 |   17.46 |  -35.16
         43 |     1 |    19 |   17.40 |  -35.11
         44 |     1 |    20 |   17.35 |  -35.06
         45 |     1 |    21 |   17.30 |  -35.01
         46 |     1 |    22 |   17.25 |  -34.95
         47 |     1 |    23 |   17.20 |  -34.90
         48 |     1 |    24 |   17.15 |  -34.85
         49 |     1 |    25 |   17.10 |  -34.79
         50 |     1 |    26 |   17.05 |  -34.74
         51 |     1 |    27 |   17.00 |  -34.68
         52 |     1 |    28 |   16.95 |  -34.63
         53 |     1 |    29 |   16.90 |  -34.57
         54 |     1 |    30 |   16.86 |  -34.51
         55 |     1 |    31 |   16.81 |  -34.46
         56 |     1 |    32 |   16.76 |  -34.40
         57 |     1 |    33 |   16.72 |  -34.34
         58 |     1 |    34 |   16.67 |  -34.28
         59 |     1 |    35 |   16.63 |  -34.21
         60 |     1 |    36 |   16.59 |  -34.15
         61 |     1 |    37 |   16.55 |  -34.09
         62 |     1 |    38 |   16.51 |  -34.03
         63 |     1 |    39 |   16.47 |  -33.96
         64 |     1 |    40 |   16.44 |  -33.90
         65 |     1 |    41 |   16.40 |  -33.84
         66 |     1 |    42 |   16.37 |  -33.78
         67 |     1 |    43 |   16.34 |  -33.71
         68 |     1 |    44 |   16.31 |  -33.65
         69 |     1 |    45 |   16.28 |  -33.59
         70 |     1 |    46 |   16.26 |  -33.54
         71 |     1 |    47 |   16.23 |  -33.48
         72 |     1 |    48 |   16.21 |  -33.42
         73 |     1 |    49 |   16.18 |  -33.37
         74 |     1 |    50 |   16.16 |  -33.31
         75 |     1 |    51 |   16.13 |  -33.26
         76 |     1 |    52 |   16.11 |  -33.20
         77 |     1 |    53 |   16.09 |  -33.15
         78 |     1 |    54 |   16.07 |  -33.10
         79 |     1 |    55 |   16.04 |  -33.05
         80 |     1 |    56 |   16.02 |  -32.99
         81 |     1 |    57 |   16.00 |  -32.94
         82 |     1 |    58 |   15.98 |  -32.89
         83 |     1 |    59 |   15.95 |  -32.84
         84 |     1 |    60 |   15.93 |  -32.79
         85 |     1 |    61 |   15.90 |  -32.74
         86 |     1 |    62 |   15.88 |  -32.68
         87 |     1 |    63 |   15.85 |  -32.62
         88 |     1 |    64 |   15.82 |  -32.56
         89 |     1 |    65 |   15.79 |  -32.50
         90 |     1 |    66 |   15.76 |  -32.44
         91 |     1 |    67 |   15.73 |  -32.37
         92 |     1 |    68 |   15.69 |  -32.30
         93 |     1 |    69 |   15.65 |  -32.22
         94 |     1 |    70 |   15.61 |  -32.13
         95 |     1 |    71 |   15.57 |  -32.05
         96 |     1 |    72 |   15.52 |  -31.95
         97 |     1 |    73 |   15.47 |  -31.85
         98 |     1 |    74 |   15.42 |  -31.75
         99 |     1 |    75 |   15.37 |  -31.65
        100 |     1 |    76 |   15.31 |  -31.54
        101 |     1 |    77 |   15.26 |  -31.44
        102 |     1 |    78 |   15.20 |  -31.33
        103 |     1 |    79 |   15.15 |  -31.23
        104 |     1 |    80 |   15.09 |  -31.12
        105 |     1 |    81 |   15.04 |  -31.02
        106 |     1 |    82 |   14.98 |  -30.91
        107 |     1 |    83 |   14.93 |  -30.80
        108 |     1 |    84 |   14.87 |  -30.70
        109 |     1 |    85 |   14.81 |  -30.59
        110 |     1 |    86 |   14.76 |  -30.48
        111 |     1 |    87 |   14.70 |  -30.38
        112 |     1 |    88 |   14.64 |  -30.27
        113 |     1 |    89 |   14.58 |  -30.16
        114 |     1 |    90 |   14.53 |  -30.05
        115 |     2 |    90 |   14.65 |  -30.00
        116 |     3 |    90 |   14.77 |  -29.96
        117 |     4 |    90 |   14.89 |  -29.91
        118 |     5 |    90 |   15.01 |  -29.87
        119 |     6 |    90 |   15.13 |  -29.82
        120 |     7 |    90 |   15.25 |  -29.78
        121 |     8 |    90 |   15.37 |  -29.73
        122 |     9 |    90 |   15.49 |  -29.69
        123 |    10 |    90 |   15.61 |  -29.64
        124 |    11 |    90 |   15.73 |  -29.60
        125 |    12 |    90 |   15.84 |  -29.56
        126 |    13 |    90 |   15.94 |  -29.52
        127 |    14 |    90 |   16.03 |  -29.49
        128 |    15 |    90 |   16.11 |  -29.46
        129 |    16 |    90 |   16.19 |  -29.43
        130 |    17 |    90 |   16.26 |  -29.40
        131 |    18 |    90 |   16.33 |  -29.38
        132 |    19 |    90 |   16.39 |  -29.35
        133 |    20 |    90 |   16.46 |  -29.33
        134 |    21 |    90 |   16.52 |  -29.31
        135 |    22 |    90 |   16.58 |  -29.28
        136 |    23 |    90 |   16.64 |  -29.26
        137 |    24 |    90 |   16.71 |  -29.24
        138 |    25 |    90 |   16.77 |  -29.21

  Excluded points : 
 --------------------------------------------------
       No excluded points.


  Status map, printed in     1 part(s) 
 -----------------------------------

   2 2 2 2 2 2 2 2 2 2 2 2 2 2 2 2 2 2 2 2 2 2 2 2 2 0
   2 1 1 1 1 1 1 1 1 1 1 1 1 1 1 1 1 1 1 1 1 1 1 1 1 0
   2 1 1 1 1 1 1 1 1 1 1 1 1 1 1 1 1 1 1 1 1 1 1 1 1 0
   2 1 1 1 1 1 1 1 1 1 1 1 1 1 1 1 1 1 1 1 1 1 1 1 1 0
   2 1 1 1 1 1 1 1 1 1 1 1 1 1 1 1 1 1 1 1 1 1 1 1 1 0
   2 1 1 1 1 1 1 1 1 1 1 1 1 1 1 1 1 1 1 1 1 1 1 1 1 0
   2 1 1 1 1 1 1 1 1 1 1 1 1 1 1 1 1 1 1 1 1 1 1 1 0 0
   2 1 1 1 1 1 1 1 1 1 1 1 1 1 1 1 1 1 1 1 1 1 1 1 0 0
   2 1 1 1 1 1 1 1 1 1 1 1 1 1 1 1 1 1 1 1 1 1 1 1 0 0
   2 1 1 1 1 1 1 1 1 1 1 1 1 1 1 1 1 1 1 1 1 1 1 0 0 0
   2 1 1 1 1 1 1 1 1 1 1 1 1 1 1 1 1 1 1 1 1 1 1 0 0 0
   2 1 1 1 1 1 1 1 1 1 1 1 1 1 1 1 1 1 1 1 1 1 1 0 0 0
   2 1 1 1 1 1 1 1 1 1 1 1 1 1 1 1 1 1 1 1 1 1 1 0 0 0
   2 1 1 1 1 1 1 1 1 1 1 1 1 1 1 1 1 1 1 1 1 1 1 0 0 0
   2 1 1 1 1 1 1 1 1 1 1 1 1 1 1 1 1 1 1 1 1 1 1 0 0 0
   2 1 1 1 1 1 1 1 1 1 1 1 1 1 1 1 1 1 1 1 1 1 1 0 0 0
   2 1 1 1 1 1 1 1 1 1 1 1 1 1 1 1 1 1 1 1 1 1 1 0 0 0
   2 1 1 1 1 1 1 1 1 1 1 1 1 1 1 1 1 1 1 1 1 1 1 1 0 0
   2 1 1 1 1 1 1 1 1 1 1 1 1 1 1 1 1 1 1 1 1 1 1 1 0 0
   2 1 1 1 1 1 1 1 1 1 1 1 1 1 1 1 1 1 1 1 1 1 1 1 0 0
   2 1 1 1 1 1 1 1 1 1 1 1 1 1 1 1 1 1 1 1 1 1 1 1 0 0
   2 1 1 1 1 1 1 1 1 1 1 1 1 1 1 1 1 1 1 1 1 1 1 1 1 0
   2 1 1 1 1 1 1 1 1 1 1 1 1 1 1 1 1 1 1 1 1 1 1 1 1 0
   2 1 1 1 1 1 1 1 1 1 1 1 1 1 1 1 1 1 1 1 1 1 1 1 1 0
   2 1 1 1 1 1 1 1 1 1 1 1 1 1 1 1 1 1 1 1 1 1 1 1 1 0
   2 1 1 1 1 1 1 1 1 1 1 1 1 1 1 1 1 1 1 1 1 1 1 1 1 0
   2 1 1 1 1 1 1 1 1 1 1 1 1 1 1 1 1 1 1 1 1 1 1 1 1 0
   2 1 1 1 1 1 1 1 1 1 1 1 1 1 1 1 1 1 1 1 1 1 1 1 1 0
   2 1 1 1 1 1 1 1 1 1 1 1 1 1 1 1 1 1 1 1 1 1 1 1 1 0
   2 1 1 1 1 1 1 1 1 1 1 1 1 1 1 1 1 1 1 1 1 1 1 1 1 0
   2 1 1 1 1 1 1 1 1 1 1 1 1 1 1 1 1 1 1 1 1 1 1 1 1 0
   2 1 1 1 1 1 1 1 1 1 1 1 1 1 1 1 1 1 1 1 1 1 1 1 1 0
   2 1 1 1 1 1 1 1 1 1 1 1 1 1 1 1 1 1 1 1 1 1 1 1 1 0
   2 1 1 1 1 1 1 1 1 1 1 1 1 1 1 1 1 1 1 1 1 1 1 1 1 0
   2 1 1 1 1 1 1 1 1 1 1 1 1 1 1 1 1 1 1 1 1 1 1 1 1 0
   2 1 1 1 1 1 1 1 1 1 1 1 1 1 1 1 1 1 1 1 1 1 1 1 1 0
   2 1 1 1 1 1 1 1 1 1 1 1 1 1 1 1 1 1 1 1 1 1 1 1 1 0
   2 1 1 1 1 1 1 1 1 1 1 1 1 1 1 1 1 1 1 1 1 1 1 1 1 0
   2 1 1 1 1 1 1 1 1 1 1 1 1 1 1 1 1 1 1 1 1 1 1 1 1 0
   2 1 1 1 1 1 1 1 1 1 1 1 1 1 1 1 1 1 1 0 0 1 1 1 0 0
   2 1 1 1 1 1 1 1 1 1 1 1 1 1 1 1 1 1 0 0 0 0 0 0 0 0
   2 1 1 1 1 1 1 1 1 1 1 1 1 1 1 1 1 1 0 0 0 0 0 0 0 0
   2 1 1 1 1 1 1 1 1 1 1 1 1 1 1 1 1 1 0 0 0 0 0 0 0 0
   2 1 1 1 1 1 1 1 1 1 1 1 1 1 1 1 1 0 0 0 0 0 0 0 0 0
   2 1 1 1 1 1 1 1 1 1 1 1 1 1 1 1 1 0 0 0 0 0 0 0 0 0
   2 1 1 1 1 1 1 1 1 1 1 1 1 1 1 1 1 1 0 0 0 0 0 0 0 0
   2 1 1 1 1 1 1 1 1 1 1 1 1 1 1 1 1 1 0 0 0 0 0 0 0 0
   2 1 1 1 1 1 1 1 1 1 1 1 1 1 1 1 1 1 1 0 0 0 0 0 0 0
   2 1 1 1 1 1 1 1 1 1 1 1 1 1 1 1 1 1 1 1 0 0 0 0 0 0
   2 1 1 1 1 1 1 1 1 1 1 1 1 1 1 1 1 1 1 1 1 0 0 0 0 0
   2 1 1 1 1 1 1 1 1 1 1 1 1 1 1 1 1 1 1 1 1 0 0 0 0 0
   2 1 1 1 1 1 1 1 1 1 1 1 1 1 1 1 1 1 1 1 1 0 0 0 0 0
   2 1 1 1 1 1 1 1 1 1 1 1 1 1 1 1 1 1 1 1 1 1 0 0 0 0
   2 1 1 1 1 1 1 1 1 1 1 1 1 1 1 1 1 1 1 1 1 1 1 0 0 0
   2 1 1 1 1 1 1 1 1 1 1 1 1 1 1 1 1 1 1 1 1 1 1 1 0 0
   2 1 1 1 1 1 1 1 1 1 1 1 1 1 1 1 1 1 1 1 1 1 1 1 0 0
   2 1 1 1 1 1 1 1 1 1 1 1 1 1 1 1 1 1 1 1 1 1 1 0 0 0
   2 1 1 1 1 1 1 1 1 1 1 1 1 1 1 1 1 1 1 1 1 1 1 1 0 0
   2 1 1 1 1 1 1 1 1 1 1 1 1 1 1 1 1 1 1 1 1 1 1 1 1 0
   2 1 1 1 1 1 1 1 1 1 1 1 1 1 1 1 1 1 1 1 1 1 1 1 1 0
   2 1 1 1 1 1 1 1 1 1 1 1 1 1 1 1 1 1 1 1 1 1 1 1 0 0
   2 1 1 1 1 1 1 1 1 1 1 1 1 1 1 1 1 1 1 1 1 1 1 1 0 0
   2 1 1 1 1 1 1 1 1 1 1 1 1 1 1 1 1 1 1 1 1 1 1 0 0 0
   2 1 1 1 1 1 1 1 1 1 1 1 1 1 1 1 1 1 1 0 0 1 1 0 0 0
   2 1 1 1 1 1 1 1 1 1 1 1 1 1 1 1 0 0 0 0 0 0 0 0 0 0
   2 1 1 1 1 1 1 1 1 1 1 1 1 1 1 1 0 0 0 0 0 0 0 0 0 0
   2 1 1 1 1 1 1 1 1 1 1 1 1 1 1 0 0 0 0 0 0 0 0 0 0 0
   2 1 1 1 1 1 1 1 1 1 1 1 1 1 1 0 0 0 0 0 0 0 0 0 0 0
   2 1 1 1 1 1 1 1 1 1 1 1 1 1 0 0 1 1 1 1 1 1 1 1 0 0
   2 1 1 1 1 1 1 1 1 1 1 1 1 1 0 0 1 1 1 1 1 1 1 1 1 0
   2 1 1 1 1 1 1 1 1 1 1 1 1 1 0 1 1 1 1 1 1 1 1 1 1 0
   2 1 1 1 1 1 1 1 1 1 1 1 1 1 1 1 1 1 1 1 1 1 1 1 1 0
   2 1 1 1 1 1 1 1 1 1 1 1 1 1 1 1 1 1 1 1 1 1 1 0 0 0
   2 1 1 1 1 1 1 1 1 1 1 1 1 1 1 1 1 1 1 1 1 0 0 0 0 0
   2 1 1 1 1 1 1 1 1 1 1 1 1 1 1 1 1 1 1 1 0 0 0 0 0 0
   2 1 1 1 1 1 1 1 1 1 1 1 1 1 1 1 1 1 1 1 1 1 0 0 0 0
   2 1 1 1 1 1 1 1 1 1 1 1 1 1 1 1 1 1 1 1 1 1 1 0 0 0
   2 1 1 1 1 1 1 1 1 1 1 1 1 1 1 1 1 1 1 1 1 1 1 1 0 0
   2 1 1 1 1 1 1 1 1 1 1 1 1 1 1 1 1 1 1 1 1 1 1 1 0 0
   2 1 1 1 1 1 1 1 1 1 1 1 1 1 1 1 1 1 1 1 1 1 1 1 0 0
   2 1 1 1 1 1 1 1 1 1 1 1 1 1 1 1 1 1 1 1 1 1 1 1 1 0
   2 1 1 1 1 1 1 1 1 1 1 1 1 1 1 1 1 1 1 1 1 1 1 1 1 0
   2 1 1 1 1 1 1 1 1 1 1 1 1 1 1 1 1 1 1 1 1 1 0 0 0 0
   2 1 1 1 1 1 1 1 1 1 1 1 1 1 1 1 1 1 1 1 1 1 0 0 0 0
   2 1 1 1 1 1 1 1 1 1 1 1 1 1 1 1 1 1 1 1 1 1 1 0 0 0
   2 1 1 1 1 1 1 1 1 1 1 1 1 1 1 1 1 1 1 1 1 1 1 1 0 0
   2 1 1 1 1 1 1 1 1 1 1 1 1 1 1 1 1 1 1 1 1 1 1 1 0 0
   2 1 1 1 1 1 1 1 1 1 1 1 1 1 1 1 1 1 1 1 1 1 1 1 1 0
   2 1 1 1 1 1 1 1 1 1 1 1 1 1 1 1 1 1 1 1 1 1 1 1 1 0
   2 2 2 2 2 2 2 2 2 2 2 2 2 2 2 2 2 2 2 2 2 2 2 2 2 0
  
  Legend : 
 -----------------------------
    0 : Land point            
    1 : Sea point             
    2 : Active boundary point 
    3 : Excluded point        


  Output boundary points : 
 --------------------------------------------------
       No boundary points.


  Writing model definition file ...

 Filling 3D look-up table for SIN4. please wait
 WAVEWATCH III ST4 TABLE FOR STRESS III  4.12    4.498442      9.4999997E-03
   1.430000             100         200          50  6.0000001E-03
  0.4000000       9.806000    

  Summary grid statistics : 
 --------------------------------------------------
       Number of longitudes      :        26
       Number of latitudes       :        90
       Number of grid points     :      2340
       Number of sea points      :      2059 (88.0%)
       Number of input b. points :       138
       Number of land points     :       281
       Number of excluded points :         0


  End of program 
 ========================================
         WAVEWATCH III Grid preprocessor 

Getting oce.nc and wav.nc from /home/gfearon/lustre/somisana-croco/configs/sa_west_02_derefined/croco_v2.1.1_cpl_ww3/RUN_01/OASIS_IN
WORKING ON MONTH:  Y2010M01

Getting croco_bry_GLORYS_Y2010M01.nc from /home/gfearon/lustre/somisana-croco/configs/sa_west_02_derefined/croco_v2.1.1_cpl_ww3/CROCO_GLORYS
Writing in croco_Y2010M01_inter.in
USING NUMTIMES = 8928

                  *** WAVEWATCH III Bounday input prep. ***   
               ===============================================

  Grid name : SWCAPE_02_derefined           

 Opening file:
 /home/gfearon/lustre/somisana-croco/configs/sa_west_02_derefined/croco_v2.1.1_c
 pl_ww3/WW3_SPEC_CMEMS/2010_01/cmems.lon14.40.lat-30.20.spec.nc
 Opening file:
 /home/gfearon/lustre/somisana-croco/configs/sa_west_02_derefined/croco_v2.1.1_c
 pl_ww3/WW3_SPEC_CMEMS/2010_01/cmems.lon14.40.lat-30.00.spec.nc
 Opening file:
 /home/gfearon/lustre/somisana-croco/configs/sa_west_02_derefined/croco_v2.1.1_c
 pl_ww3/WW3_SPEC_CMEMS/2010_01/cmems.lon14.60.lat-30.60.spec.nc
 Opening file:
 /home/gfearon/lustre/somisana-croco/configs/sa_west_02_derefined/croco_v2.1.1_c
 pl_ww3/WW3_SPEC_CMEMS/2010_01/cmems.lon14.60.lat-30.40.spec.nc
 Opening file:
 /home/gfearon/lustre/somisana-croco/configs/sa_west_02_derefined/croco_v2.1.1_c
 pl_ww3/WW3_SPEC_CMEMS/2010_01/cmems.lon14.60.lat-30.20.spec.nc
 Opening file:
 /home/gfearon/lustre/somisana-croco/configs/sa_west_02_derefined/croco_v2.1.1_c
 pl_ww3/WW3_SPEC_CMEMS/2010_01/cmems.lon14.60.lat-30.00.spec.nc
 Opening file:
 /home/gfearon/lustre/somisana-croco/configs/sa_west_02_derefined/croco_v2.1.1_c
 pl_ww3/WW3_SPEC_CMEMS/2010_01/cmems.lon14.60.lat-29.80.spec.nc
 Opening file:
 /home/gfearon/lustre/somisana-croco/configs/sa_west_02_derefined/croco_v2.1.1_c
 pl_ww3/WW3_SPEC_CMEMS/2010_01/cmems.lon14.80.lat-31.00.spec.nc
 Opening file:
 /home/gfearon/lustre/somisana-croco/configs/sa_west_02_derefined/croco_v2.1.1_c
 pl_ww3/WW3_SPEC_CMEMS/2010_01/cmems.lon14.80.lat-30.80.spec.nc
 Opening file:
 /home/gfearon/lustre/somisana-croco/configs/sa_west_02_derefined/croco_v2.1.1_c
 pl_ww3/WW3_SPEC_CMEMS/2010_01/cmems.lon14.80.lat-30.60.spec.nc
 Opening file:
 /home/gfearon/lustre/somisana-croco/configs/sa_west_02_derefined/croco_v2.1.1_c
 pl_ww3/WW3_SPEC_CMEMS/2010_01/cmems.lon14.80.lat-30.40.spec.nc
 Opening file:
 /home/gfearon/lustre/somisana-croco/configs/sa_west_02_derefined/croco_v2.1.1_c
 pl_ww3/WW3_SPEC_CMEMS/2010_01/cmems.lon14.80.lat-30.20.spec.nc
 Opening file:
 /home/gfearon/lustre/somisana-croco/configs/sa_west_02_derefined/croco_v2.1.1_c
 pl_ww3/WW3_SPEC_CMEMS/2010_01/cmems.lon14.80.lat-30.00.spec.nc
 Opening file:
 /home/gfearon/lustre/somisana-croco/configs/sa_west_02_derefined/croco_v2.1.1_c
 pl_ww3/WW3_SPEC_CMEMS/2010_01/cmems.lon14.80.lat-29.80.spec.nc
 Opening file:
 /home/gfearon/lustre/somisana-croco/configs/sa_west_02_derefined/croco_v2.1.1_c
 pl_ww3/WW3_SPEC_CMEMS/2010_01/cmems.lon15.00.lat-31.40.spec.nc
 Opening file:
 /home/gfearon/lustre/somisana-croco/configs/sa_west_02_derefined/croco_v2.1.1_c
 pl_ww3/WW3_SPEC_CMEMS/2010_01/cmems.lon15.00.lat-31.20.spec.nc
 Opening file:
 /home/gfearon/lustre/somisana-croco/configs/sa_west_02_derefined/croco_v2.1.1_c
 pl_ww3/WW3_SPEC_CMEMS/2010_01/cmems.lon15.00.lat-31.00.spec.nc
 Opening file:
 /home/gfearon/lustre/somisana-croco/configs/sa_west_02_derefined/croco_v2.1.1_c
 pl_ww3/WW3_SPEC_CMEMS/2010_01/cmems.lon15.00.lat-30.80.spec.nc
 Opening file:
 /home/gfearon/lustre/somisana-croco/configs/sa_west_02_derefined/croco_v2.1.1_c
 pl_ww3/WW3_SPEC_CMEMS/2010_01/cmems.lon15.00.lat-30.60.spec.nc
 Opening file:
 /home/gfearon/lustre/somisana-croco/configs/sa_west_02_derefined/croco_v2.1.1_c
 pl_ww3/WW3_SPEC_CMEMS/2010_01/cmems.lon15.00.lat-30.40.spec.nc
 Opening file:
 /home/gfearon/lustre/somisana-croco/configs/sa_west_02_derefined/croco_v2.1.1_c
 pl_ww3/WW3_SPEC_CMEMS/2010_01/cmems.lon15.00.lat-30.00.spec.nc
 Opening file:
 /home/gfearon/lustre/somisana-croco/configs/sa_west_02_derefined/croco_v2.1.1_c
 pl_ww3/WW3_SPEC_CMEMS/2010_01/cmems.lon15.00.lat-29.80.spec.nc
 Opening file:
 /home/gfearon/lustre/somisana-croco/configs/sa_west_02_derefined/croco_v2.1.1_c
 pl_ww3/WW3_SPEC_CMEMS/2010_01/cmems.lon15.20.lat-31.80.spec.nc
 Opening file:
 /home/gfearon/lustre/somisana-croco/configs/sa_west_02_derefined/croco_v2.1.1_c
 pl_ww3/WW3_SPEC_CMEMS/2010_01/cmems.lon15.20.lat-31.60.spec.nc
 Opening file:
 /home/gfearon/lustre/somisana-croco/configs/sa_west_02_derefined/croco_v2.1.1_c
 pl_ww3/WW3_SPEC_CMEMS/2010_01/cmems.lon15.20.lat-31.40.spec.nc
 Opening file:
 /home/gfearon/lustre/somisana-croco/configs/sa_west_02_derefined/croco_v2.1.1_c
 pl_ww3/WW3_SPEC_CMEMS/2010_01/cmems.lon15.20.lat-31.20.spec.nc
 Opening file:
 /home/gfearon/lustre/somisana-croco/configs/sa_west_02_derefined/croco_v2.1.1_c
 pl_ww3/WW3_SPEC_CMEMS/2010_01/cmems.lon15.20.lat-31.00.spec.nc
 Opening file:
 /home/gfearon/lustre/somisana-croco/configs/sa_west_02_derefined/croco_v2.1.1_c
 pl_ww3/WW3_SPEC_CMEMS/2010_01/cmems.lon15.20.lat-30.00.spec.nc
 Opening file:
 /home/gfearon/lustre/somisana-croco/configs/sa_west_02_derefined/croco_v2.1.1_c
 pl_ww3/WW3_SPEC_CMEMS/2010_01/cmems.lon15.20.lat-29.80.spec.nc
 Opening file:
 /home/gfearon/lustre/somisana-croco/configs/sa_west_02_derefined/croco_v2.1.1_c
 pl_ww3/WW3_SPEC_CMEMS/2010_01/cmems.lon15.20.lat-29.60.spec.nc
 Opening file:
 /home/gfearon/lustre/somisana-croco/configs/sa_west_02_derefined/croco_v2.1.1_c
 pl_ww3/WW3_SPEC_CMEMS/2010_01/cmems.lon15.40.lat-32.20.spec.nc
 Opening file:
 /home/gfearon/lustre/somisana-croco/configs/sa_west_02_derefined/croco_v2.1.1_c
 pl_ww3/WW3_SPEC_CMEMS/2010_01/cmems.lon15.40.lat-32.00.spec.nc
 Opening file:
 /home/gfearon/lustre/somisana-croco/configs/sa_west_02_derefined/croco_v2.1.1_c
 pl_ww3/WW3_SPEC_CMEMS/2010_01/cmems.lon15.40.lat-31.80.spec.nc
 Opening file:
 /home/gfearon/lustre/somisana-croco/configs/sa_west_02_derefined/croco_v2.1.1_c
 pl_ww3/WW3_SPEC_CMEMS/2010_01/cmems.lon15.40.lat-31.60.spec.nc
 Opening file:
 /home/gfearon/lustre/somisana-croco/configs/sa_west_02_derefined/croco_v2.1.1_c
 pl_ww3/WW3_SPEC_CMEMS/2010_01/cmems.lon15.40.lat-31.40.spec.nc
 Opening file:
 /home/gfearon/lustre/somisana-croco/configs/sa_west_02_derefined/croco_v2.1.1_c
 pl_ww3/WW3_SPEC_CMEMS/2010_01/cmems.lon15.40.lat-31.20.spec.nc
 Opening file:
 /home/gfearon/lustre/somisana-croco/configs/sa_west_02_derefined/croco_v2.1.1_c
 pl_ww3/WW3_SPEC_CMEMS/2010_01/cmems.lon15.40.lat-29.80.spec.nc
 Opening file:
 /home/gfearon/lustre/somisana-croco/configs/sa_west_02_derefined/croco_v2.1.1_c
 pl_ww3/WW3_SPEC_CMEMS/2010_01/cmems.lon15.40.lat-29.60.spec.nc
 Opening file:
 /home/gfearon/lustre/somisana-croco/configs/sa_west_02_derefined/croco_v2.1.1_c
 pl_ww3/WW3_SPEC_CMEMS/2010_01/cmems.lon15.60.lat-32.60.spec.nc
 Opening file:
 /home/gfearon/lustre/somisana-croco/configs/sa_west_02_derefined/croco_v2.1.1_c
 pl_ww3/WW3_SPEC_CMEMS/2010_01/cmems.lon15.60.lat-32.40.spec.nc
 Opening file:
 /home/gfearon/lustre/somisana-croco/configs/sa_west_02_derefined/croco_v2.1.1_c
 pl_ww3/WW3_SPEC_CMEMS/2010_01/cmems.lon15.60.lat-32.20.spec.nc
 Opening file:
 /home/gfearon/lustre/somisana-croco/configs/sa_west_02_derefined/croco_v2.1.1_c
 pl_ww3/WW3_SPEC_CMEMS/2010_01/cmems.lon15.60.lat-32.00.spec.nc
 Opening file:
 /home/gfearon/lustre/somisana-croco/configs/sa_west_02_derefined/croco_v2.1.1_c
 pl_ww3/WW3_SPEC_CMEMS/2010_01/cmems.lon15.60.lat-31.80.spec.nc
 Opening file:
 /home/gfearon/lustre/somisana-croco/configs/sa_west_02_derefined/croco_v2.1.1_c
 pl_ww3/WW3_SPEC_CMEMS/2010_01/cmems.lon15.60.lat-31.60.spec.nc
 Opening file:
 /home/gfearon/lustre/somisana-croco/configs/sa_west_02_derefined/croco_v2.1.1_c
 pl_ww3/WW3_SPEC_CMEMS/2010_01/cmems.lon15.60.lat-29.80.spec.nc
 Opening file:
 /home/gfearon/lustre/somisana-croco/configs/sa_west_02_derefined/croco_v2.1.1_c
 pl_ww3/WW3_SPEC_CMEMS/2010_01/cmems.lon15.60.lat-29.60.spec.nc
 Opening file:
 /home/gfearon/lustre/somisana-croco/configs/sa_west_02_derefined/croco_v2.1.1_c
 pl_ww3/WW3_SPEC_CMEMS/2010_01/cmems.lon15.80.lat-33.00.spec.nc
 Opening file:
 /home/gfearon/lustre/somisana-croco/configs/sa_west_02_derefined/croco_v2.1.1_c
 pl_ww3/WW3_SPEC_CMEMS/2010_01/cmems.lon15.80.lat-32.80.spec.nc
 Opening file:
 /home/gfearon/lustre/somisana-croco/configs/sa_west_02_derefined/croco_v2.1.1_c
 pl_ww3/WW3_SPEC_CMEMS/2010_01/cmems.lon15.80.lat-32.60.spec.nc
 Opening file:
 /home/gfearon/lustre/somisana-croco/configs/sa_west_02_derefined/croco_v2.1.1_c
 pl_ww3/WW3_SPEC_CMEMS/2010_01/cmems.lon15.80.lat-32.40.spec.nc
 Opening file:
 /home/gfearon/lustre/somisana-croco/configs/sa_west_02_derefined/croco_v2.1.1_c
 pl_ww3/WW3_SPEC_CMEMS/2010_01/cmems.lon15.80.lat-32.20.spec.nc
 Opening file:
 /home/gfearon/lustre/somisana-croco/configs/sa_west_02_derefined/croco_v2.1.1_c
 pl_ww3/WW3_SPEC_CMEMS/2010_01/cmems.lon15.80.lat-32.00.spec.nc
 Opening file:
 /home/gfearon/lustre/somisana-croco/configs/sa_west_02_derefined/croco_v2.1.1_c
 pl_ww3/WW3_SPEC_CMEMS/2010_01/cmems.lon15.80.lat-29.80.spec.nc
 Opening file:
 /home/gfearon/lustre/somisana-croco/configs/sa_west_02_derefined/croco_v2.1.1_c
 pl_ww3/WW3_SPEC_CMEMS/2010_01/cmems.lon15.80.lat-29.60.spec.nc
 Opening file:
 /home/gfearon/lustre/somisana-croco/configs/sa_west_02_derefined/croco_v2.1.1_c
 pl_ww3/WW3_SPEC_CMEMS/2010_01/cmems.lon15.80.lat-29.40.spec.nc
 Opening file:
 /home/gfearon/lustre/somisana-croco/configs/sa_west_02_derefined/croco_v2.1.1_c
 pl_ww3/WW3_SPEC_CMEMS/2010_01/cmems.lon16.00.lat-33.40.spec.nc
 Opening file:
 /home/gfearon/lustre/somisana-croco/configs/sa_west_02_derefined/croco_v2.1.1_c
 pl_ww3/WW3_SPEC_CMEMS/2010_01/cmems.lon16.00.lat-33.20.spec.nc
 Opening file:
 /home/gfearon/lustre/somisana-croco/configs/sa_west_02_derefined/croco_v2.1.1_c
 pl_ww3/WW3_SPEC_CMEMS/2010_01/cmems.lon16.00.lat-33.00.spec.nc
 Opening file:
 /home/gfearon/lustre/somisana-croco/configs/sa_west_02_derefined/croco_v2.1.1_c
 pl_ww3/WW3_SPEC_CMEMS/2010_01/cmems.lon16.00.lat-32.80.spec.nc
 Opening file:
 /home/gfearon/lustre/somisana-croco/configs/sa_west_02_derefined/croco_v2.1.1_c
 pl_ww3/WW3_SPEC_CMEMS/2010_01/cmems.lon16.00.lat-32.60.spec.nc
 Opening file:
 /home/gfearon/lustre/somisana-croco/configs/sa_west_02_derefined/croco_v2.1.1_c
 pl_ww3/WW3_SPEC_CMEMS/2010_01/cmems.lon16.00.lat-32.40.spec.nc
 Opening file:
 /home/gfearon/lustre/somisana-croco/configs/sa_west_02_derefined/croco_v2.1.1_c
 pl_ww3/WW3_SPEC_CMEMS/2010_01/cmems.lon16.00.lat-29.60.spec.nc
 Opening file:
 /home/gfearon/lustre/somisana-croco/configs/sa_west_02_derefined/croco_v2.1.1_c
 pl_ww3/WW3_SPEC_CMEMS/2010_01/cmems.lon16.00.lat-29.40.spec.nc
 Opening file:
 /home/gfearon/lustre/somisana-croco/configs/sa_west_02_derefined/croco_v2.1.1_c
 pl_ww3/WW3_SPEC_CMEMS/2010_01/cmems.lon16.20.lat-33.80.spec.nc
 Opening file:
 /home/gfearon/lustre/somisana-croco/configs/sa_west_02_derefined/croco_v2.1.1_c
 pl_ww3/WW3_SPEC_CMEMS/2010_01/cmems.lon16.20.lat-33.60.spec.nc
 Opening file:
 /home/gfearon/lustre/somisana-croco/configs/sa_west_02_derefined/croco_v2.1.1_c
 pl_ww3/WW3_SPEC_CMEMS/2010_01/cmems.lon16.20.lat-33.40.spec.nc
 Opening file:
 /home/gfearon/lustre/somisana-croco/configs/sa_west_02_derefined/croco_v2.1.1_c
 pl_ww3/WW3_SPEC_CMEMS/2010_01/cmems.lon16.20.lat-33.20.spec.nc
 Opening file:
 /home/gfearon/lustre/somisana-croco/configs/sa_west_02_derefined/croco_v2.1.1_c
 pl_ww3/WW3_SPEC_CMEMS/2010_01/cmems.lon16.20.lat-33.00.spec.nc
 Opening file:
 /home/gfearon/lustre/somisana-croco/configs/sa_west_02_derefined/croco_v2.1.1_c
 pl_ww3/WW3_SPEC_CMEMS/2010_01/cmems.lon16.20.lat-32.80.spec.nc
 Opening file:
 /home/gfearon/lustre/somisana-croco/configs/sa_west_02_derefined/croco_v2.1.1_c
 pl_ww3/WW3_SPEC_CMEMS/2010_01/cmems.lon16.20.lat-29.60.spec.nc
 Opening file:
 /home/gfearon/lustre/somisana-croco/configs/sa_west_02_derefined/croco_v2.1.1_c
 pl_ww3/WW3_SPEC_CMEMS/2010_01/cmems.lon16.20.lat-29.40.spec.nc
 Opening file:
 /home/gfearon/lustre/somisana-croco/configs/sa_west_02_derefined/croco_v2.1.1_c
 pl_ww3/WW3_SPEC_CMEMS/2010_01/cmems.lon16.20.lat-29.20.spec.nc
 Opening file:
 /home/gfearon/lustre/somisana-croco/configs/sa_west_02_derefined/croco_v2.1.1_c
 pl_ww3/WW3_SPEC_CMEMS/2010_01/cmems.lon16.40.lat-34.20.spec.nc
 Opening file:
 /home/gfearon/lustre/somisana-croco/configs/sa_west_02_derefined/croco_v2.1.1_c
 pl_ww3/WW3_SPEC_CMEMS/2010_01/cmems.lon16.40.lat-34.00.spec.nc
 Opening file:
 /home/gfearon/lustre/somisana-croco/configs/sa_west_02_derefined/croco_v2.1.1_c
 pl_ww3/WW3_SPEC_CMEMS/2010_01/cmems.lon16.40.lat-33.80.spec.nc
 Opening file:
 /home/gfearon/lustre/somisana-croco/configs/sa_west_02_derefined/croco_v2.1.1_c
 pl_ww3/WW3_SPEC_CMEMS/2010_01/cmems.lon16.40.lat-33.60.spec.nc
 Opening file:
 /home/gfearon/lustre/somisana-croco/configs/sa_west_02_derefined/croco_v2.1.1_c
 pl_ww3/WW3_SPEC_CMEMS/2010_01/cmems.lon16.40.lat-33.40.spec.nc
 Opening file:
 /home/gfearon/lustre/somisana-croco/configs/sa_west_02_derefined/croco_v2.1.1_c
 pl_ww3/WW3_SPEC_CMEMS/2010_01/cmems.lon16.40.lat-29.60.spec.nc
 Opening file:
 /home/gfearon/lustre/somisana-croco/configs/sa_west_02_derefined/croco_v2.1.1_c
 pl_ww3/WW3_SPEC_CMEMS/2010_01/cmems.lon16.40.lat-29.40.spec.nc
 Opening file:
 /home/gfearon/lustre/somisana-croco/configs/sa_west_02_derefined/croco_v2.1.1_c
 pl_ww3/WW3_SPEC_CMEMS/2010_01/cmems.lon16.40.lat-29.20.spec.nc
 Opening file:
 /home/gfearon/lustre/somisana-croco/configs/sa_west_02_derefined/croco_v2.1.1_c
 pl_ww3/WW3_SPEC_CMEMS/2010_01/cmems.lon16.60.lat-34.40.spec.nc
 Opening file:
 /home/gfearon/lustre/somisana-croco/configs/sa_west_02_derefined/croco_v2.1.1_c
 pl_ww3/WW3_SPEC_CMEMS/2010_01/cmems.lon16.60.lat-34.20.spec.nc
 Opening file:
 /home/gfearon/lustre/somisana-croco/configs/sa_west_02_derefined/croco_v2.1.1_c
 pl_ww3/WW3_SPEC_CMEMS/2010_01/cmems.lon16.60.lat-34.00.spec.nc
 Opening file:
 /home/gfearon/lustre/somisana-croco/configs/sa_west_02_derefined/croco_v2.1.1_c
 pl_ww3/WW3_SPEC_CMEMS/2010_01/cmems.lon16.60.lat-33.80.spec.nc
 Opening file:
 /home/gfearon/lustre/somisana-croco/configs/sa_west_02_derefined/croco_v2.1.1_c
 pl_ww3/WW3_SPEC_CMEMS/2010_01/cmems.lon16.60.lat-29.40.spec.nc
 Opening file:
 /home/gfearon/lustre/somisana-croco/configs/sa_west_02_derefined/croco_v2.1.1_c
 pl_ww3/WW3_SPEC_CMEMS/2010_01/cmems.lon16.60.lat-29.20.spec.nc
 Opening file:
 /home/gfearon/lustre/somisana-croco/configs/sa_west_02_derefined/croco_v2.1.1_c
 pl_ww3/WW3_SPEC_CMEMS/2010_01/cmems.lon16.80.lat-34.80.spec.nc
 Opening file:
 /home/gfearon/lustre/somisana-croco/configs/sa_west_02_derefined/croco_v2.1.1_c
 pl_ww3/WW3_SPEC_CMEMS/2010_01/cmems.lon16.80.lat-34.60.spec.nc
 Opening file:
 /home/gfearon/lustre/somisana-croco/configs/sa_west_02_derefined/croco_v2.1.1_c
 pl_ww3/WW3_SPEC_CMEMS/2010_01/cmems.lon16.80.lat-34.40.spec.nc
 Opening file:
 /home/gfearon/lustre/somisana-croco/configs/sa_west_02_derefined/croco_v2.1.1_c
 pl_ww3/WW3_SPEC_CMEMS/2010_01/cmems.lon16.80.lat-34.20.spec.nc
 Opening file:
 /home/gfearon/lustre/somisana-croco/configs/sa_west_02_derefined/croco_v2.1.1_c
 pl_ww3/WW3_SPEC_CMEMS/2010_01/cmems.lon16.80.lat-29.40.spec.nc
 Opening file:
 /home/gfearon/lustre/somisana-croco/configs/sa_west_02_derefined/croco_v2.1.1_c
 pl_ww3/WW3_SPEC_CMEMS/2010_01/cmems.lon16.80.lat-29.20.spec.nc
 Opening file:
 /home/gfearon/lustre/somisana-croco/configs/sa_west_02_derefined/croco_v2.1.1_c
 pl_ww3/WW3_SPEC_CMEMS/2010_01/cmems.lon17.00.lat-35.00.spec.nc
 Opening file:
 /home/gfearon/lustre/somisana-croco/configs/sa_west_02_derefined/croco_v2.1.1_c
 pl_ww3/WW3_SPEC_CMEMS/2010_01/cmems.lon17.00.lat-34.80.spec.nc
 Opening file:
 /home/gfearon/lustre/somisana-croco/configs/sa_west_02_derefined/croco_v2.1.1_c
 pl_ww3/WW3_SPEC_CMEMS/2010_01/cmems.lon17.00.lat-34.60.spec.nc
 Opening file:
 /home/gfearon/lustre/somisana-croco/configs/sa_west_02_derefined/croco_v2.1.1_c
 pl_ww3/WW3_SPEC_CMEMS/2010_01/cmems.lon17.00.lat-34.40.spec.nc
 Opening file:
 /home/gfearon/lustre/somisana-croco/configs/sa_west_02_derefined/croco_v2.1.1_c
 pl_ww3/WW3_SPEC_CMEMS/2010_01/cmems.lon17.20.lat-35.20.spec.nc
 Opening file:
 /home/gfearon/lustre/somisana-croco/configs/sa_west_02_derefined/croco_v2.1.1_c
 pl_ww3/WW3_SPEC_CMEMS/2010_01/cmems.lon17.20.lat-35.00.spec.nc
 Opening file:
 /home/gfearon/lustre/somisana-croco/configs/sa_west_02_derefined/croco_v2.1.1_c
 pl_ww3/WW3_SPEC_CMEMS/2010_01/cmems.lon17.20.lat-34.80.spec.nc
 Opening file:
 /home/gfearon/lustre/somisana-croco/configs/sa_west_02_derefined/croco_v2.1.1_c
 pl_ww3/WW3_SPEC_CMEMS/2010_01/cmems.lon17.20.lat-34.60.spec.nc
 Opening file:
 /home/gfearon/lustre/somisana-croco/configs/sa_west_02_derefined/croco_v2.1.1_c
 pl_ww3/WW3_SPEC_CMEMS/2010_01/cmems.lon17.40.lat-35.40.spec.nc
 Opening file:
 /home/gfearon/lustre/somisana-croco/configs/sa_west_02_derefined/croco_v2.1.1_c
 pl_ww3/WW3_SPEC_CMEMS/2010_01/cmems.lon17.40.lat-35.20.spec.nc
 Opening file:
 /home/gfearon/lustre/somisana-croco/configs/sa_west_02_derefined/croco_v2.1.1_c
 pl_ww3/WW3_SPEC_CMEMS/2010_01/cmems.lon17.40.lat-35.00.spec.nc
 Opening file:
 /home/gfearon/lustre/somisana-croco/configs/sa_west_02_derefined/croco_v2.1.1_c
 pl_ww3/WW3_SPEC_CMEMS/2010_01/cmems.lon17.40.lat-34.80.spec.nc
 Opening file:
 /home/gfearon/lustre/somisana-croco/configs/sa_west_02_derefined/croco_v2.1.1_c
 pl_ww3/WW3_SPEC_CMEMS/2010_01/cmems.lon17.60.lat-35.60.spec.nc
 Opening file:
 /home/gfearon/lustre/somisana-croco/configs/sa_west_02_derefined/croco_v2.1.1_c
 pl_ww3/WW3_SPEC_CMEMS/2010_01/cmems.lon17.60.lat-35.40.spec.nc
 Opening file:
 /home/gfearon/lustre/somisana-croco/configs/sa_west_02_derefined/croco_v2.1.1_c
 pl_ww3/WW3_SPEC_CMEMS/2010_01/cmems.lon17.60.lat-35.20.spec.nc
 Opening file:
 /home/gfearon/lustre/somisana-croco/configs/sa_west_02_derefined/croco_v2.1.1_c
 pl_ww3/WW3_SPEC_CMEMS/2010_01/cmems.lon17.60.lat-35.00.spec.nc
 Opening file:
 /home/gfearon/lustre/somisana-croco/configs/sa_west_02_derefined/croco_v2.1.1_c
 pl_ww3/WW3_SPEC_CMEMS/2010_01/cmems.lon17.80.lat-35.80.spec.nc
 Opening file:
 /home/gfearon/lustre/somisana-croco/configs/sa_west_02_derefined/croco_v2.1.1_c
 pl_ww3/WW3_SPEC_CMEMS/2010_01/cmems.lon17.80.lat-35.60.spec.nc
 Opening file:
 /home/gfearon/lustre/somisana-croco/configs/sa_west_02_derefined/croco_v2.1.1_c
 pl_ww3/WW3_SPEC_CMEMS/2010_01/cmems.lon17.80.lat-35.40.spec.nc
 Opening file:
 /home/gfearon/lustre/somisana-croco/configs/sa_west_02_derefined/croco_v2.1.1_c
 pl_ww3/WW3_SPEC_CMEMS/2010_01/cmems.lon17.80.lat-35.20.spec.nc
 Opening file:
 /home/gfearon/lustre/somisana-croco/configs/sa_west_02_derefined/croco_v2.1.1_c
 pl_ww3/WW3_SPEC_CMEMS/2010_01/cmems.lon18.00.lat-35.80.spec.nc
 Opening file:
 /home/gfearon/lustre/somisana-croco/configs/sa_west_02_derefined/croco_v2.1.1_c
 pl_ww3/WW3_SPEC_CMEMS/2010_01/cmems.lon18.00.lat-35.60.spec.nc
 Opening file:
 /home/gfearon/lustre/somisana-croco/configs/sa_west_02_derefined/croco_v2.1.1_c
 pl_ww3/WW3_SPEC_CMEMS/2010_01/cmems.lon18.00.lat-35.40.spec.nc
 Opening file:
 /home/gfearon/lustre/somisana-croco/configs/sa_west_02_derefined/croco_v2.1.1_c
 pl_ww3/WW3_SPEC_CMEMS/2010_01/cmems.lon18.20.lat-36.00.spec.nc
 Opening file:
 /home/gfearon/lustre/somisana-croco/configs/sa_west_02_derefined/croco_v2.1.1_c
 pl_ww3/WW3_SPEC_CMEMS/2010_01/cmems.lon18.20.lat-35.80.spec.nc
 Opening file:
 /home/gfearon/lustre/somisana-croco/configs/sa_west_02_derefined/croco_v2.1.1_c
 pl_ww3/WW3_SPEC_CMEMS/2010_01/cmems.lon18.20.lat-35.60.spec.nc
 Opening file:
 /home/gfearon/lustre/somisana-croco/configs/sa_west_02_derefined/croco_v2.1.1_c
 pl_ww3/WW3_SPEC_CMEMS/2010_01/cmems.lon18.40.lat-36.20.spec.nc
 Opening file:
 /home/gfearon/lustre/somisana-croco/configs/sa_west_02_derefined/croco_v2.1.1_c
 pl_ww3/WW3_SPEC_CMEMS/2010_01/cmems.lon18.40.lat-36.00.spec.nc
 Opening file:
 /home/gfearon/lustre/somisana-croco/configs/sa_west_02_derefined/croco_v2.1.1_c
 pl_ww3/WW3_SPEC_CMEMS/2010_01/cmems.lon18.40.lat-35.80.spec.nc
 Opening file:
 /home/gfearon/lustre/somisana-croco/configs/sa_west_02_derefined/croco_v2.1.1_c
 pl_ww3/WW3_SPEC_CMEMS/2010_01/cmems.lon18.60.lat-36.20.spec.nc
 Opening file:
 /home/gfearon/lustre/somisana-croco/configs/sa_west_02_derefined/croco_v2.1.1_c
 pl_ww3/WW3_SPEC_CMEMS/2010_01/cmems.lon18.60.lat-36.00.spec.nc
 Opening file:
 /home/gfearon/lustre/somisana-croco/configs/sa_west_02_derefined/croco_v2.1.1_c
 pl_ww3/WW3_SPEC_CMEMS/2010_01/cmems.lon18.60.lat-35.80.spec.nc
 Opening file:
 /home/gfearon/lustre/somisana-croco/configs/sa_west_02_derefined/croco_v2.1.1_c
 pl_ww3/WW3_SPEC_CMEMS/2010_01/cmems.lon18.80.lat-36.20.spec.nc
 Opening file:
 /home/gfearon/lustre/somisana-croco/configs/sa_west_02_derefined/croco_v2.1.1_c
 pl_ww3/WW3_SPEC_CMEMS/2010_01/cmems.lon18.80.lat-36.00.spec.nc
 Opening file:
 /home/gfearon/lustre/somisana-croco/configs/sa_west_02_derefined/croco_v2.1.1_c
 pl_ww3/WW3_SPEC_CMEMS/2010_01/cmems.lon18.80.lat-35.80.spec.nc
 Opening file:
 /home/gfearon/lustre/somisana-croco/configs/sa_west_02_derefined/croco_v2.1.1_c
 pl_ww3/WW3_SPEC_CMEMS/2010_01/cmems.lon18.80.lat-35.60.spec.nc
 Opening file:
 /home/gfearon/lustre/somisana-croco/configs/sa_west_02_derefined/croco_v2.1.1_c
 pl_ww3/WW3_SPEC_CMEMS/2010_01/cmems.lon19.00.lat-36.00.spec.nc
 Opening file:
 /home/gfearon/lustre/somisana-croco/configs/sa_west_02_derefined/croco_v2.1.1_c
 pl_ww3/WW3_SPEC_CMEMS/2010_01/cmems.lon19.00.lat-35.80.spec.nc
 Opening file:
 /home/gfearon/lustre/somisana-croco/configs/sa_west_02_derefined/croco_v2.1.1_c
 pl_ww3/WW3_SPEC_CMEMS/2010_01/cmems.lon19.00.lat-35.60.spec.nc
 Opening file:
 /home/gfearon/lustre/somisana-croco/configs/sa_west_02_derefined/croco_v2.1.1_c
 pl_ww3/WW3_SPEC_CMEMS/2010_01/cmems.lon19.00.lat-35.40.spec.nc
 Opening file:
 /home/gfearon/lustre/somisana-croco/configs/sa_west_02_derefined/croco_v2.1.1_c
 pl_ww3/WW3_SPEC_CMEMS/2010_01/cmems.lon19.20.lat-35.80.spec.nc
 Opening file:
 /home/gfearon/lustre/somisana-croco/configs/sa_west_02_derefined/croco_v2.1.1_c
 pl_ww3/WW3_SPEC_CMEMS/2010_01/cmems.lon19.20.lat-35.60.spec.nc
 Opening file:
 /home/gfearon/lustre/somisana-croco/configs/sa_west_02_derefined/croco_v2.1.1_c
 pl_ww3/WW3_SPEC_CMEMS/2010_01/cmems.lon19.20.lat-35.40.spec.nc
 Opening file:
 /home/gfearon/lustre/somisana-croco/configs/sa_west_02_derefined/croco_v2.1.1_c
 pl_ww3/WW3_SPEC_CMEMS/2010_01/cmems.lon19.40.lat-35.60.spec.nc
 Opening file:
 /home/gfearon/lustre/somisana-croco/configs/sa_west_02_derefined/croco_v2.1.1_c
 pl_ww3/WW3_SPEC_CMEMS/2010_01/cmems.lon19.40.lat-35.40.spec.nc
 Opening file:
 /home/gfearon/lustre/somisana-croco/configs/sa_west_02_derefined/croco_v2.1.1_c
 pl_ww3/WW3_SPEC_CMEMS/2010_01/cmems.lon19.40.lat-35.20.spec.nc
 Opening file:
 /home/gfearon/lustre/somisana-croco/configs/sa_west_02_derefined/croco_v2.1.1_c
 pl_ww3/WW3_SPEC_CMEMS/2010_01/cmems.lon19.60.lat-35.40.spec.nc
 Opening file:
 /home/gfearon/lustre/somisana-croco/configs/sa_west_02_derefined/croco_v2.1.1_c
 pl_ww3/WW3_SPEC_CMEMS/2010_01/cmems.lon19.60.lat-35.20.spec.nc
 Opening file:
 /home/gfearon/lustre/somisana-croco/configs/sa_west_02_derefined/croco_v2.1.1_c
 pl_ww3/WW3_SPEC_CMEMS/2010_01/cmems.lon19.60.lat-35.00.spec.nc
 Opening file:
 /home/gfearon/lustre/somisana-croco/configs/sa_west_02_derefined/croco_v2.1.1_c
 pl_ww3/WW3_SPEC_CMEMS/2010_01/cmems.lon19.80.lat-35.20.spec.nc
 Opening file:
 /home/gfearon/lustre/somisana-croco/configs/sa_west_02_derefined/croco_v2.1.1_c
 pl_ww3/WW3_SPEC_CMEMS/2010_01/cmems.lon19.80.lat-35.00.spec.nc
 Opening file:
 /home/gfearon/lustre/somisana-croco/configs/sa_west_02_derefined/croco_v2.1.1_c
 pl_ww3/WW3_SPEC_CMEMS/2010_01/cmems.lon19.80.lat-34.80.spec.nc
 Opening file:
 /home/gfearon/lustre/somisana-croco/configs/sa_west_02_derefined/croco_v2.1.1_c
 pl_ww3/WW3_SPEC_CMEMS/2010_01/cmems.lon20.00.lat-35.20.spec.nc
 Opening file:
 /home/gfearon/lustre/somisana-croco/configs/sa_west_02_derefined/croco_v2.1.1_c
 pl_ww3/WW3_SPEC_CMEMS/2010_01/cmems.lon20.00.lat-35.00.spec.nc
 Opening file:
 /home/gfearon/lustre/somisana-croco/configs/sa_west_02_derefined/croco_v2.1.1_c
 pl_ww3/WW3_SPEC_CMEMS/2010_01/cmems.lon20.00.lat-34.80.spec.nc
 DIST:  9.6913286E-02  0.1101434               1         123         122
   18.60000       18.60000       18.56499      -36.00000      -36.20000    
  -36.09294    
 IPBP:           1         123         122           1           1
 RDBP:           1  0.5353144      0.4646856      0.0000000E+00  0.0000000E+00
 DIST:  4.4234656E-02  0.1341704               2         123         126
   18.60000       18.80000       18.63833      -36.00000      -36.00000    
  -36.02994    
 IPBP:           2         123         126           1           1
 RDBP:           2  0.8083581      0.1916420      0.0000000E+00  0.0000000E+00
 DIST:  7.4018739E-02  9.6913286E-02           3         126         123
   18.80000       18.60000       18.71394      -36.00000      -36.00000    
  -35.96495    
 IPBP:           3         126         123           1           1
 RDBP:           3  0.5697092      0.4302908      0.0000000E+00  0.0000000E+00
 DIST:  0.1008705      0.1008705               4         126         127
   18.80000       18.80000       18.78958      -36.00000      -35.80000    
  -35.89993    
 IPBP:           4         126         127           1           1
 RDBP:           4  0.4996662      0.5003338      0.0000000E+00  0.0000000E+00
 DIST:  6.2557250E-02  0.1153499               5         127         130
   18.80000       19.00000       18.86482      -35.80000      -35.80000    
  -35.83525    
 IPBP:           5         127         130           1           1
 RDBP:           5  0.6758854      0.3241145      0.0000000E+00  0.0000000E+00
 DIST:  5.5952907E-02  0.1186941               6         130         127
   19.00000       18.80000       18.93963      -35.80000      -35.80000    
  -35.77094    
 IPBP:           6         130         127           1           1
 RDBP:           6  0.6981537      0.3018463      0.0000000E+00  0.0000000E+00
 DIST:  9.4872780E-02  0.1083524               7         130         131
   19.00000       19.00000       19.01398      -35.80000      -35.60000    
  -35.70703    
 IPBP:           7         130         131           1           1
 RDBP:           7  0.5351428      0.4648572      0.0000000E+00  0.0000000E+00
 DIST:  8.6229227E-02  0.1027921               8         131         134
   19.00000       19.20000       19.08779      -35.60000      -35.60000    
  -35.64358    
 IPBP:           8         131         134           1           1
 RDBP:           8  0.5610731      0.4389269      0.0000000E+00  0.0000000E+00
 DIST:  3.9564680E-02  0.1327040               9         134         131
   19.20000       19.00000       19.16077      -35.60000      -35.60000    
  -35.58083    
 IPBP:           9         134         131           1           1
 RDBP:           9  0.8038681      0.1961319      0.0000000E+00  0.0000000E+00
 DIST:  8.6229227E-02  0.1219466              10         134         135
   19.20000       19.20000       19.23218      -35.60000      -35.40000    
  -35.51945    
 IPBP:          10         134         135           1           1
 RDBP:          10  0.5972763      0.4027237      0.0000000E+00  0.0000000E+00
 DIST:  0.1008705      0.1008705              11         135         137
   19.20000       19.40000       19.30053      -35.40000      -35.40000    
  -35.46070    
 IPBP:          11         135         137           1           1
 RDBP:          11  0.4973726      0.5026274      0.0000000E+00  0.0000000E+00
 DIST:  3.4264021E-02  0.1356209              12         137         135
   19.40000       19.20000       19.36412      -35.40000      -35.40000    
  -35.40602    
 IPBP:          12         137         135           1           1
 RDBP:          12  0.8206128      0.1793872      0.0000000E+00  0.0000000E+00
 DIST:  4.8456643E-02  0.1519511              13         137         139
   19.40000       19.60000       19.42200      -35.40000      -35.40000    
  -35.35627    
 IPBP:          13         137         139           1           1
 RDBP:          13  0.8900132      0.1099868      0.0000000E+00  0.0000000E+00
 DIST:  0.1083524      0.1266688              14         137         138
   19.40000       19.40000       19.47434      -35.40000      -35.20000    
  -35.31128    
 IPBP:          14         137         138           1           1
 RDBP:          14  0.5563905      0.4436094      0.0000000E+00  0.0000000E+00
 DIST:  9.6913286E-02  0.1219466              15         140         138
   19.60000       19.40000       19.52209      -35.20000      -35.20000    
  -35.27023    
 IPBP:          15         140         138           1           1
 RDBP:          15  0.6104255      0.3895745      0.0000000E+00  0.0000000E+00
 DIST:  3.9564680E-02  0.1398823              16         140         138
   19.60000       19.40000       19.56630      -35.20000      -35.20000    
  -35.23222    
 IPBP:          16         140         138           1           1
 RDBP:          16  0.8315150      0.1684850      0.0000000E+00  0.0000000E+00
 DIST:  0.0000000E+00  0.1582588              17         140         142
   19.60000       19.80000       19.60776      -35.20000      -35.20000    
  -35.19658    
 IPBP:          17         140         142           1           1
 RDBP:          17  0.9611948      3.8805231E-02  0.0000000E+00  0.0000000E+00
 DIST:  5.5952907E-02  0.1312212              18         140         142
   19.60000       19.80000       19.64705      -35.20000      -35.20000    
  -35.16280    
 IPBP:          18         140         142           1           1
 RDBP:          18  0.7647367      0.2352633      0.0000000E+00  0.0000000E+00
 DIST:  9.6913286E-02  0.1186941              19         140         142
   19.60000       19.80000       19.68494      -35.20000      -35.20000    
  -35.13023    
 IPBP:          19         140         142           1           1
 RDBP:          19  0.5752787      0.4247213      0.0000000E+00  0.0000000E+00
 DIST:  0.1153499      0.1203313              20         143         142
   19.80000       19.80000       19.72230      -35.00000      -35.20000    
  -35.09812    
 IPBP:          20         143         142           1           1
 RDBP:          20  0.5093937      0.4906063      0.0000000E+00  0.0000000E+00
 DIST:  7.4018739E-02  0.1398823              21         143         142
   19.80000       19.80000       19.75973      -35.00000      -35.20000    
  -35.06594    
 IPBP:          21         143         142           1           1
 RDBP:          21  0.6702779      0.3297221      0.0000000E+00  0.0000000E+00
 DIST:  2.7976453E-02  0.1643245              22         143         141
   19.80000       19.60000       19.79753      -35.00000      -35.00000    
  -35.03345    
 IPBP:          22         143         141           1           1
 RDBP:          22  0.9876403      1.2359690E-02  0.0000000E+00  0.0000000E+00
 DIST:  2.7976453E-02  0.1341704              23         143         146
   19.80000       20.00000       19.83584      -35.00000      -35.00000    
  -35.00052    
 IPBP:          23         143         146           1           1
 RDBP:          23  0.8208148      0.1791852      0.0000000E+00  0.0000000E+00
 DIST:  6.8528041E-02  0.1083524              24         143         146
   19.80000       20.00000       19.87484      -35.00000      -35.00000    
  -34.96699    
 IPBP:          24         143         146           1           1
 RDBP:          24  0.6257987      0.3742013      0.0000000E+00  0.0000000E+00
 DIST:  9.4872780E-02  0.1153499              25         146         143
   20.00000       19.80000       19.91507      -35.00000      -35.00000    
  -34.93240    
 IPBP:          25         146         143           1           1
 RDBP:          25  0.5753685      0.4246314      0.0000000E+00  0.0000000E+00
 DIST:  4.4234656E-02  0.1203313              26         120         123
   18.40000       18.60000       18.45122      -36.00000      -36.00000    
  -36.00568    
 IPBP:          26         120         123           1           1
 RDBP:          26  0.7439203      0.2560796      0.0000000E+00  0.0000000E+00
 DIST:  8.3929367E-02  0.1341704              27         120         121
   18.40000       18.40000       18.35089      -36.00000      -35.80000    
  -35.92764    
 IPBP:          27         120         121           1           1
 RDBP:          27  0.6381773      0.3618227      0.0000000E+00  0.0000000E+00
 DIST:  7.4018739E-02  0.1282042              28         117         121
   18.20000       18.40000       18.26048      -35.80000      -35.80000    
  -35.85629    
 IPBP:          28         117         121           1           1
 RDBP:          28  0.6975977      0.3024023      0.0000000E+00  0.0000000E+00
 DIST:  1.9782340E-02  0.1467098              29         117         113
   18.20000       18.00000       18.17986      -35.80000      -35.80000    
  -35.79176    
 IPBP:          29         117         113           1           1
 RDBP:          29  0.8993019      0.1006981      0.0000000E+00  0.0000000E+00
 DIST:  0.1008705      0.1119058              30         117         113
   18.20000       18.00000       18.10803      -35.80000      -35.80000    
  -35.73344    
 IPBP:          30         117         113           1           1
 RDBP:          30  0.5401686      0.4598314      0.0000000E+00  0.0000000E+00
 DIST:  8.8469319E-02  0.1251145              31         114         113
   18.00000       18.00000       18.04301      -35.60000      -35.80000    
  -35.67995    
 IPBP:          31         114         113           1           1
 RDBP:          31  0.6002403      0.3997597      0.0000000E+00  0.0000000E+00
 DIST:  3.9564680E-02  0.1532334              32         114         110
   18.00000       17.80000       17.98291      -35.60000      -35.60000    
  -35.62984    
 IPBP:          32         114         110           1           1
 RDBP:          32  0.9145511      8.5448891E-02  0.0000000E+00  0.0000000E+00
 DIST:  6.2557250E-02  0.1046783              33         114         110
   18.00000       17.80000       17.92553      -35.60000      -35.60000    
  -35.58136    
 IPBP:          33         114         110           1           1
 RDBP:          33  0.6276584      0.3723417      0.0000000E+00  0.0000000E+00
 DIST:  9.0654083E-02  0.1251145              34         110         114
   17.80000       18.00000       17.87029      -35.60000      -35.60000    
  -35.53412    
 IPBP:          34         110         114           1           1
 RDBP:          34  0.6485533      0.3514467      0.0000000E+00  0.0000000E+00
 DIST:  9.0654083E-02  0.1153499              35         111         110
   17.80000       17.80000       17.81690      -35.40000      -35.60000    
  -35.48785    
 IPBP:          35         111         110           1           1
 RDBP:          35  0.5607309      0.4392691      0.0000000E+00  0.0000000E+00
 DIST:  5.2339152E-02  0.1412742              36         111         106
   17.80000       17.60000       17.76457      -35.40000      -35.40000    
  -35.44191    
 IPBP:          36         111         106           1           1
 RDBP:          36  0.8228635      0.1771365      0.0000000E+00  0.0000000E+00
 DIST:  6.8528041E-02  8.8469319E-02          37         111         106
   17.80000       17.60000       17.71270      -35.40000      -35.40000    
  -35.39577    
 IPBP:          37         111         106           1           1
 RDBP:          37  0.5635103      0.4364897      0.0000000E+00  0.0000000E+00
 DIST:  7.4018739E-02  0.1251145              38         106         111
   17.60000       17.80000       17.66107      -35.40000      -35.40000    
  -35.34923    
 IPBP:          38         106         111           1           1
 RDBP:          38  0.6946698      0.3053301      0.0000000E+00  0.0000000E+00
 DIST:  0.1008705      0.1008705              39         106         107
   17.60000       17.60000       17.60965      -35.40000      -35.20000    
  -35.30224    
 IPBP:          39         106         107           1           1
 RDBP:          39  0.5112057      0.4887944      0.0000000E+00  0.0000000E+00
 DIST:  6.5610602E-02  0.1412742              40         107         102
   17.60000       17.40000       17.55839      -35.20000      -35.20000    
  -35.25474    
 IPBP:          40         107         102           1           1
 RDBP:          40  0.7919281      0.2080719      0.0000000E+00  0.0000000E+00
 DIST:  7.9129368E-02  8.8469319E-02          41         107         102
   17.60000       17.40000       17.50710      -35.20000      -35.20000    
  -35.20652    
 IPBP:          41         107         102           1           1
 RDBP:          41  0.5355242      0.4644758      0.0000000E+00  0.0000000E+00
 DIST:  6.2557250E-02  0.1251145              42         102         107
   17.40000       17.60000       17.45570      -35.20000      -35.20000    
  -35.15747    
 IPBP:          42         102         107           1           1
 RDBP:          42  0.7214805      0.2785195      0.0000000E+00  0.0000000E+00
 DIST:  9.0654083E-02  0.1065312              43         102         103
   17.40000       17.40000       17.40425      -35.20000      -35.00000    
  -35.10761    
 IPBP:          43         102         103           1           1
 RDBP:          43  0.5380610      0.4619390      0.0000000E+00  0.0000000E+00
 DIST:  6.8528041E-02  0.1370561              44         103          98
   17.40000       17.20000       17.35287      -35.00000      -35.00000    
  -35.05703    
 IPBP:          44         103          98           1           1
 RDBP:          44  0.7643743      0.2356257      0.0000000E+00  0.0000000E+00
 DIST:  7.9129368E-02  7.9129368E-02          45          98         103
   17.20000       17.40000       17.30165      -35.00000      -35.00000    
  -35.00575    
 IPBP:          45          98         103           1           1
 RDBP:          45  0.4917364      0.5082636      0.0000000E+00  0.0000000E+00
 DIST:  6.2557250E-02  0.1282042              46          98         103
   17.20000       17.40000       17.25063      -35.00000      -35.00000    
  -34.95380    
 IPBP:          46          98         103           1           1
 RDBP:          46  0.7468362      0.2531638      0.0000000E+00  0.0000000E+00
 DIST:  9.6913286E-02  0.1008705              47          98          99
   17.20000       17.20000       17.19986      -35.00000      -34.80000    
  -34.90117    
 IPBP:          47          98          99           1           1
 RDBP:          47  0.5058460      0.4941540      0.0000000E+00  0.0000000E+00
 DIST:  6.8528041E-02  0.1312212              48          99          94
   17.20000       17.00000       17.14937      -34.80000      -34.80000    
  -34.84785    
 IPBP:          48          99          94           1           1
 RDBP:          48  0.7468576      0.2531424      0.0000000E+00  0.0000000E+00
 DIST:  8.1564680E-02  8.3929367E-02          49          94          99
   17.00000       17.20000       17.09922      -34.80000      -34.80000    
  -34.79384    
 IPBP:          49          94          99           1           1
 RDBP:          49  0.5039196      0.4960804      0.0000000E+00  0.0000000E+00
 DIST:  7.4018739E-02  0.1384764              50          94          99
   17.00000       17.20000       17.04944      -34.80000      -34.80000    
  -34.73914    
 IPBP:          50          94          99           1           1
 RDBP:          50  0.7527990      0.2472010      0.0000000E+00  0.0000000E+00
 DIST:  8.6229227E-02  0.1186941              51          95          94
   17.00000       17.00000       17.00010      -34.60000      -34.80000    
  -34.68374    
 IPBP:          51          95          94           1           1
 RDBP:          51  0.5813004      0.4186996      0.0000000E+00  0.0000000E+00
 DIST:  4.8456643E-02  0.1266688              52          95          88
   17.00000       16.80000       16.95126      -34.60000      -34.60000    
  -34.62764    
 IPBP:          52          95          88           1           1
 RDBP:          52  0.7562895      0.2437105      0.0000000E+00  0.0000000E+00
 DIST:  8.3929367E-02  8.8469319E-02          53          95          88
   17.00000       16.80000       16.90297      -34.60000      -34.60000    
  -34.57082    
 IPBP:          53          95          88           1           1
 RDBP:          53  0.5148581      0.4851418      0.0000000E+00  0.0000000E+00
 DIST:  9.6913286E-02  0.1203313              54          88          89
   16.80000       16.80000       16.85531      -34.60000      -34.40000    
  -34.51329    
 IPBP:          54          88          89           1           1
 RDBP:          54  0.5664722      0.4335279      0.0000000E+00  0.0000000E+00
 DIST:  5.5952907E-02  0.1453699              55          89          88
   16.80000       16.80000       16.80836      -34.40000      -34.60000    
  -34.45504    
 IPBP:          55          89          88           1           1
 RDBP:          55  0.7248226      0.2751774      0.0000000E+00  0.0000000E+00
 DIST:  3.4264021E-02  0.1341704              56          89          81
   16.80000       16.60000       16.76220      -34.40000      -34.40000    
  -34.39603    
 IPBP:          56          89          81           1           1
 RDBP:          56  0.8109998      0.1890003      0.0000000E+00  0.0000000E+00
 DIST:  9.2787407E-02  0.1153499              57          89          81
   16.80000       16.60000       16.71693      -34.40000      -34.40000    
  -34.33628    
 IPBP:          57          89          81           1           1
 RDBP:          57  0.5846438      0.4153562      0.0000000E+00  0.0000000E+00
 DIST:  9.8911710E-02  0.1297215              58          82          90
   16.60000       16.80000       16.67266      -34.20000      -34.20000    
  -34.27578    
 IPBP:          58          82          90           1           1
 RDBP:          58  0.6366861      0.3633139      0.0000000E+00  0.0000000E+00
 DIST:  2.7976453E-02  0.1426525              59          82          90
   16.60000       16.80000       16.62954      -34.20000      -34.20000    
  -34.21455    
 IPBP:          59          82          90           1           1
 RDBP:          59  0.8522941      0.1477059      0.0000000E+00  0.0000000E+00
 DIST:  4.8456643E-02  0.1506578              60          82          83
   16.60000       16.60000       16.58771      -34.20000      -34.00000    
  -34.15265    
 IPBP:          60          82          83           1           1
 RDBP:          60  0.7632417      0.2367583      0.0000000E+00  0.0000000E+00
 DIST:  0.1008705      0.1186941              61          83          82
   16.60000       16.60000       16.54732      -34.00000      -34.20000    
  -34.09019    
 IPBP:          61          83          82           1           1
 RDBP:          61  0.5490664      0.4509336      0.0000000E+00  0.0000000E+00
 DIST:  7.9129368E-02  9.2787407E-02          62          83          74
   16.60000       16.40000       16.50849      -34.00000      -34.00000    
  -34.02732    
 IPBP:          62          83          74           1           1
 RDBP:          62  0.5424670      0.4575330      0.0000000E+00  0.0000000E+00
 DIST:  6.8528041E-02  0.1119058              63          74          83
   16.40000       16.60000       16.47133      -34.00000      -34.00000    
  -33.96424    
 IPBP:          63          74          83           1           1
 RDBP:          63  0.6433272      0.3566728      0.0000000E+00  0.0000000E+00
 DIST:  0.1008705      0.1046783              64          74          75
   16.40000       16.40000       16.43589      -34.00000      -33.80000    
  -33.90120    
 IPBP:          64          74          75           1           1
 RDBP:          64  0.5060177      0.4939823      0.0000000E+00  0.0000000E+00
 DIST:  3.9564680E-02  0.1607125              65          75          74
   16.40000       16.40000       16.40218      -33.80000      -34.00000    
  -33.83845    
 IPBP:          65          75          74           1           1
 RDBP:          65  0.8077400      0.1922600      0.0000000E+00  0.0000000E+00
 DIST:  2.7976453E-02  0.1426525              66          75          64
   16.40000       16.20000       16.37017      -33.80000      -33.80000    
  -33.77626    
 IPBP:          66          75          64           1           1
 RDBP:          66  0.8508350      0.1491651      0.0000000E+00  0.0000000E+00
 DIST:  9.6913286E-02  0.1251145              67          75          76
   16.40000       16.40000       16.33974      -33.80000      -33.60000    
  -33.71483    
 IPBP:          67          75          76           1           1
 RDBP:          67  0.5741479      0.4258521      0.0000000E+00  0.0000000E+00
 DIST:  9.2787407E-02  0.1046783              68          76          65
   16.40000       16.20000       16.31074      -33.60000      -33.60000    
  -33.65423    
 IPBP:          68          76          65           1           1
 RDBP:          68  0.5537064      0.4462936      0.0000000E+00  0.0000000E+00
 DIST:  6.8528041E-02  9.6913286E-02          69          65          76
   16.20000       16.40000       16.28297      -33.60000      -33.60000    
  -33.59449    
 IPBP:          69          65          76           1           1
 RDBP:          69  0.5851493      0.4148507      0.0000000E+00  0.0000000E+00
 DIST:  7.9129368E-02  0.1370561              70          65          76
   16.20000       16.40000       16.25627      -33.60000      -33.60000    
  -33.53565    
 IPBP:          70          65          76           1           1
 RDBP:          70  0.7186645      0.2813355      0.0000000E+00  0.0000000E+00
 DIST:  7.9129368E-02  0.1235407              71          66          65
   16.20000       16.20000       16.23051      -33.40000      -33.60000    
  -33.47781    
 IPBP:          71          66          65           1           1
 RDBP:          71  0.6109522      0.3890478      0.0000000E+00  0.0000000E+00
 DIST:  1.9782340E-02  0.1643245              72          66          77
   16.20000       16.40000       16.20556      -33.40000      -33.40000    
  -33.42097    
 IPBP:          72          66          77           1           1
 RDBP:          72  0.9722193      2.7780693E-02  0.0000000E+00  0.0000000E+00
 DIST:  3.9564680E-02  0.1557664              73          66          56
   16.20000       16.00000       16.18126      -33.40000      -33.40000    
  -33.36508    
 IPBP:          73          66          56           1           1
 RDBP:          73  0.9062923      9.3707681E-02  0.0000000E+00  0.0000000E+00
 DIST:  9.6913286E-02  0.1153499              74          66          67
   16.20000       16.20000       16.15748      -33.40000      -33.20000    
  -33.31004    
 IPBP:          74          66          67           1           1
 RDBP:          74  0.5501726      0.4498274      0.0000000E+00  0.0000000E+00
 DIST:  7.9129368E-02  0.1251145              75          67          57
   16.20000       16.00000       16.13409      -33.20000      -33.20000    
  -33.25578    
 IPBP:          75          67          57           1           1
 RDBP:          75  0.6704686      0.3295314      0.0000000E+00  0.0000000E+00
 DIST:  7.4018739E-02  9.2787407E-02          76          67          57
   16.20000       16.00000       16.11103      -33.20000      -33.20000    
  -33.20227    
 IPBP:          76          67          57           1           1
 RDBP:          76  0.5551412      0.4448588      0.0000000E+00  0.0000000E+00
 DIST:  8.8469319E-02  0.1046783              77          57          67
   16.00000       16.20000       16.08820      -33.20000      -33.20000    
  -33.14948    
 IPBP:          77          57          67           1           1
 RDBP:          77  0.5589941      0.4410060      0.0000000E+00  0.0000000E+00
 DIST:  0.1119058      0.1170339              78          58          57
   16.00000       16.00000       16.06554      -33.00000      -33.20000    
  -33.09730    
 IPBP:          78          58          57           1           1
 RDBP:          78  0.5134944      0.4865056      0.0000000E+00  0.0000000E+00
 DIST:  5.9347022E-02  0.1384764              79          58          68
   16.00000       16.20000       16.04298      -33.00000      -33.00000    
  -33.04567    
 IPBP:          79          58          68           1           1
 RDBP:          79  0.7851094      0.2148906      0.0000000E+00  0.0000000E+00
 DIST:  0.0000000E+00  0.1506578              80          58          68
   16.00000       16.20000       16.02044      -33.00000      -33.00000    
  -32.99448    
 IPBP:          80          58          68           1           1
 RDBP:          80  0.8977761      0.1022240      0.0000000E+00  0.0000000E+00
 DIST:  5.5952907E-02  0.1440177              81          58          59
   16.00000       16.00000       15.99786      -33.00000      -32.80000    
  -32.94358    
 IPBP:          81          58          59           1           1
 RDBP:          81  0.7179042      0.2820958      0.0000000E+00  0.0000000E+00
 DIST:  9.4872780E-02  0.1119058              82          59          58
   16.00000       16.00000       15.97512      -32.80000      -33.00000    
  -32.89275    
 IPBP:          82          59          58           1           1
 RDBP:          82  0.5362300      0.4637701      0.0000000E+00  0.0000000E+00
 DIST:  5.5952907E-02  0.1341704              83          59          48
   16.00000       15.80000       15.95204      -32.80000      -32.80000    
  -32.84164    
 IPBP:          83          59          48           1           1
 RDBP:          83  0.7602079      0.2397921      0.0000000E+00  0.0000000E+00
 DIST:  6.2557250E-02  0.1083524              84          59          48
   16.00000       15.80000       15.92840      -32.80000      -32.80000    
  -32.78976    
 IPBP:          84          59          48           1           1
 RDBP:          84  0.6419808      0.3580192      0.0000000E+00  0.0000000E+00
 DIST:  0.1046783      0.1083524              85          59          48
   16.00000       15.80000       15.90390      -32.80000      -32.80000    
  -32.73653    
 IPBP:          85          59          48           1           1
 RDBP:          85  0.5195050      0.4804949      0.0000000E+00  0.0000000E+00
 DIST:  0.1046783      0.1312212              86          49          60
   15.80000       16.00000       15.87831      -32.60000      -32.60000    
  -32.68148    
 IPBP:          86          49          60           1           1
 RDBP:          86  0.6084687      0.3915313      0.0000000E+00  0.0000000E+00
 DIST:  4.8456643E-02  0.1282042              87          49          60
   15.80000       16.00000       15.85147      -32.60000      -32.60000    
  -32.62429    
 IPBP:          87          49          60           1           1
 RDBP:          87  0.7426746      0.2573254      0.0000000E+00  0.0000000E+00
 DIST:  3.9564680E-02  0.1532334              88          49          60
   15.80000       16.00000       15.82325      -32.60000      -32.60000    
  -32.56482    
 IPBP:          88          49          60           1           1
 RDBP:          88  0.8837279      0.1162721      0.0000000E+00  0.0000000E+00
 DIST:  9.6913286E-02  0.1008705              89          49          50
   15.80000       15.80000       15.79355      -32.60000      -32.40000    
  -32.50274    
 IPBP:          89          49          50           1           1
 RDBP:          89  0.5137141      0.4862860      0.0000000E+00  0.0000000E+00
 DIST:  4.8456643E-02  0.1412742              90          50          40
   15.80000       15.60000       15.76211      -32.40000      -32.40000    
  -32.43764    
 IPBP:          90          50          40           1           1
 RDBP:          90  0.8105667      0.1894333      0.0000000E+00  0.0000000E+00
 DIST:  6.5610602E-02  0.1119058              91          50          40
   15.80000       15.60000       15.72864      -32.40000      -32.40000    
  -32.36890    
 IPBP:          91          50          40           1           1
 RDBP:          91  0.6431967      0.3568033      0.0000000E+00  0.0000000E+00
 DIST:  0.1251145      0.1297215              92          41          40
   15.60000       15.60000       15.69282      -32.20000      -32.40000    
  -32.29589    
 IPBP:          92          41          40           1           1
 RDBP:          92  0.5205706      0.4794293      0.0000000E+00  0.0000000E+00
 DIST:  4.8456643E-02  0.1235407              93          41          51
   15.60000       15.80000       15.65432      -32.20000      -32.20000    
  -32.21802    
 IPBP:          93          41          51           1           1
 RDBP:          93  0.7283981      0.2716019      0.0000000E+00  0.0000000E+00
 DIST:  6.8528041E-02  0.1356209              94          41          42
   15.60000       15.60000       15.61290      -32.20000      -32.00000    
  -32.13482    
 IPBP:          94          41          42           1           1
 RDBP:          94  0.6741116      0.3258884      0.0000000E+00  0.0000000E+00
 DIST:  5.5952907E-02  0.1506578              95          42          32
   15.60000       15.40000       15.56843      -32.00000      -32.00000    
  -32.04610    
 IPBP:          95          42          32           1           1
 RDBP:          95  0.8421341      0.1578659      0.0000000E+00  0.0000000E+00
 DIST:  8.3929367E-02  0.1119058              96          42          32
   15.60000       15.40000       15.52105      -32.00000      -32.00000    
  -31.95218    
 IPBP:          96          42          32           1           1
 RDBP:          96  0.6052375      0.3947625      0.0000000E+00  0.0000000E+00
 DIST:  7.6616675E-02  0.1186941              97          33          43
   15.40000       15.60000       15.47112      -31.80000      -31.80000    
  -31.85381    
 IPBP:          97          33          43           1           1
 RDBP:          97  0.6443857      0.3556143      0.0000000E+00  0.0000000E+00
 DIST:  4.8456643E-02  0.1532334              98          33          34
   15.40000       15.40000       15.41920      -31.80000      -31.60000    
  -31.75206    
 IPBP:          98          33          34           1           1
 RDBP:          98  0.7603021      0.2396979      0.0000000E+00  0.0000000E+00
 DIST:  5.5952907E-02  0.1493534              99          34          24
   15.40000       15.20000       15.36605      -31.60000      -31.60000    
  -31.64843    
 IPBP:          99          34          24           1           1
 RDBP:          99  0.8302649      0.1697351      0.0000000E+00  0.0000000E+00
 DIST:  9.6913286E-02  0.1119058             100          34          24
   15.40000       15.20000       15.31215      -31.60000      -31.60000    
  -31.54381    
 IPBP:         100          34          24           1           1
 RDBP:         100  0.5607658      0.4392342      0.0000000E+00  0.0000000E+00
 DIST:  6.2557250E-02  0.1282042             101          25          35
   15.20000       15.40000       15.25778      -31.40000      -31.40000    
  -31.43872    
 IPBP:         101          25          35           1           1
 RDBP:         101  0.7110746      0.2889254      0.0000000E+00  0.0000000E+00
 DIST:  6.8528041E-02  0.1327040             102          25          26
   15.20000       15.20000       15.20302      -31.40000      -31.20000    
  -31.33324    
 IPBP:         102          25          26           1           1
 RDBP:         102  0.6662121      0.3337879      0.0000000E+00  0.0000000E+00
 DIST:  4.8456643E-02  0.1282042             103          26          16
   15.20000       15.00000       15.14807      -31.20000      -31.20000    
  -31.22775    
 IPBP:         103          26          16           1           1
[...]
Writing new record dpt      number    638 for 2010:02:27T13:00:00 in file ww3.201002.nc
Writing new record wnd      number    638 for 2010:02:27T13:00:00 in file ww3.201002.nc
Writing new record hs       number    638 for 2010:02:27T13:00:00 in file ww3.201002.nc
Writing new record fp       number    638 for 2010:02:27T13:00:00 in file ww3.201002.nc
Writing new record dir      number    638 for 2010:02:27T13:00:00 in file ww3.201002.nc
Writing new record dp       number    638 for 2010:02:27T13:00:00 in file ww3.201002.nc
      Files for 2010/02/27 14:00:00 UTC
Writing new record dpt      number    639 for 2010:02:27T14:00:00 in file ww3.201002.nc
Writing new record wnd      number    639 for 2010:02:27T14:00:00 in file ww3.201002.nc
Writing new record hs       number    639 for 2010:02:27T14:00:00 in file ww3.201002.nc
Writing new record fp       number    639 for 2010:02:27T14:00:00 in file ww3.201002.nc
Writing new record dir      number    639 for 2010:02:27T14:00:00 in file ww3.201002.nc
Writing new record dp       number    639 for 2010:02:27T14:00:00 in file ww3.201002.nc
      Files for 2010/02/27 15:00:00 UTC
Writing new record dpt      number    640 for 2010:02:27T15:00:00 in file ww3.201002.nc
Writing new record wnd      number    640 for 2010:02:27T15:00:00 in file ww3.201002.nc
Writing new record hs       number    640 for 2010:02:27T15:00:00 in file ww3.201002.nc
Writing new record fp       number    640 for 2010:02:27T15:00:00 in file ww3.201002.nc
Writing new record dir      number    640 for 2010:02:27T15:00:00 in file ww3.201002.nc
Writing new record dp       number    640 for 2010:02:27T15:00:00 in file ww3.201002.nc
      Files for 2010/02/27 16:00:00 UTC
Writing new record dpt      number    641 for 2010:02:27T16:00:00 in file ww3.201002.nc
Writing new record wnd      number    641 for 2010:02:27T16:00:00 in file ww3.201002.nc
Writing new record hs       number    641 for 2010:02:27T16:00:00 in file ww3.201002.nc
Writing new record fp       number    641 for 2010:02:27T16:00:00 in file ww3.201002.nc
Writing new record dir      number    641 for 2010:02:27T16:00:00 in file ww3.201002.nc
Writing new record dp       number    641 for 2010:02:27T16:00:00 in file ww3.201002.nc
      Files for 2010/02/27 17:00:00 UTC
Writing new record dpt      number    642 for 2010:02:27T17:00:00 in file ww3.201002.nc
Writing new record wnd      number    642 for 2010:02:27T17:00:00 in file ww3.201002.nc
Writing new record hs       number    642 for 2010:02:27T17:00:00 in file ww3.201002.nc
Writing new record fp       number    642 for 2010:02:27T17:00:00 in file ww3.201002.nc
Writing new record dir      number    642 for 2010:02:27T17:00:00 in file ww3.201002.nc
Writing new record dp       number    642 for 2010:02:27T17:00:00 in file ww3.201002.nc
      Files for 2010/02/27 18:00:00 UTC
Writing new record dpt      number    643 for 2010:02:27T18:00:00 in file ww3.201002.nc
Writing new record wnd      number    643 for 2010:02:27T18:00:00 in file ww3.201002.nc
Writing new record hs       number    643 for 2010:02:27T18:00:00 in file ww3.201002.nc
Writing new record fp       number    643 for 2010:02:27T18:00:00 in file ww3.201002.nc
Writing new record dir      number    643 for 2010:02:27T18:00:00 in file ww3.201002.nc
Writing new record dp       number    643 for 2010:02:27T18:00:00 in file ww3.201002.nc
      Files for 2010/02/27 19:00:00 UTC
Writing new record dpt      number    644 for 2010:02:27T19:00:00 in file ww3.201002.nc
Writing new record wnd      number    644 for 2010:02:27T19:00:00 in file ww3.201002.nc
Writing new record hs       number    644 for 2010:02:27T19:00:00 in file ww3.201002.nc
Writing new record fp       number    644 for 2010:02:27T19:00:00 in file ww3.201002.nc
Writing new record dir      number    644 for 2010:02:27T19:00:00 in file ww3.201002.nc
Writing new record dp       number    644 for 2010:02:27T19:00:00 in file ww3.201002.nc
      Files for 2010/02/27 20:00:00 UTC
Writing new record dpt      number    645 for 2010:02:27T20:00:00 in file ww3.201002.nc
Writing new record wnd      number    645 for 2010:02:27T20:00:00 in file ww3.201002.nc
Writing new record hs       number    645 for 2010:02:27T20:00:00 in file ww3.201002.nc
Writing new record fp       number    645 for 2010:02:27T20:00:00 in file ww3.201002.nc
Writing new record dir      number    645 for 2010:02:27T20:00:00 in file ww3.201002.nc
Writing new record dp       number    645 for 2010:02:27T20:00:00 in file ww3.201002.nc
      Files for 2010/02/27 21:00:00 UTC
Writing new record dpt      number    646 for 2010:02:27T21:00:00 in file ww3.201002.nc
Writing new record wnd      number    646 for 2010:02:27T21:00:00 in file ww3.201002.nc
Writing new record hs       number    646 for 2010:02:27T21:00:00 in file ww3.201002.nc
Writing new record fp       number    646 for 2010:02:27T21:00:00 in file ww3.201002.nc
Writing new record dir      number    646 for 2010:02:27T21:00:00 in file ww3.201002.nc
Writing new record dp       number    646 for 2010:02:27T21:00:00 in file ww3.201002.nc
      Files for 2010/02/27 22:00:00 UTC
Writing new record dpt      number    647 for 2010:02:27T22:00:00 in file ww3.201002.nc
Writing new record wnd      number    647 for 2010:02:27T22:00:00 in file ww3.201002.nc
Writing new record hs       number    647 for 2010:02:27T22:00:00 in file ww3.201002.nc
Writing new record fp       number    647 for 2010:02:27T22:00:00 in file ww3.201002.nc
Writing new record dir      number    647 for 2010:02:27T22:00:00 in file ww3.201002.nc
Writing new record dp       number    647 for 2010:02:27T22:00:00 in file ww3.201002.nc
      Files for 2010/02/27 23:00:00 UTC
Writing new record dpt      number    648 for 2010:02:27T23:00:00 in file ww3.201002.nc
Writing new record wnd      number    648 for 2010:02:27T23:00:00 in file ww3.201002.nc
Writing new record hs       number    648 for 2010:02:27T23:00:00 in file ww3.201002.nc
Writing new record fp       number    648 for 2010:02:27T23:00:00 in file ww3.201002.nc
Writing new record dir      number    648 for 2010:02:27T23:00:00 in file ww3.201002.nc
Writing new record dp       number    648 for 2010:02:27T23:00:00 in file ww3.201002.nc
      Files for 2010/02/28 00:00:00 UTC
Writing new record dpt      number    649 for 2010:02:28T00:00:00 in file ww3.201002.nc
Writing new record wnd      number    649 for 2010:02:28T00:00:00 in file ww3.201002.nc
Writing new record hs       number    649 for 2010:02:28T00:00:00 in file ww3.201002.nc
Writing new record fp       number    649 for 2010:02:28T00:00:00 in file ww3.201002.nc
Writing new record dir      number    649 for 2010:02:28T00:00:00 in file ww3.201002.nc
Writing new record dp       number    649 for 2010:02:28T00:00:00 in file ww3.201002.nc
      Files for 2010/02/28 01:00:00 UTC
Writing new record dpt      number    650 for 2010:02:28T01:00:00 in file ww3.201002.nc
Writing new record wnd      number    650 for 2010:02:28T01:00:00 in file ww3.201002.nc
Writing new record hs       number    650 for 2010:02:28T01:00:00 in file ww3.201002.nc
Writing new record fp       number    650 for 2010:02:28T01:00:00 in file ww3.201002.nc
Writing new record dir      number    650 for 2010:02:28T01:00:00 in file ww3.201002.nc
Writing new record dp       number    650 for 2010:02:28T01:00:00 in file ww3.201002.nc
      Files for 2010/02/28 02:00:00 UTC
Writing new record dpt      number    651 for 2010:02:28T02:00:00 in file ww3.201002.nc
Writing new record wnd      number    651 for 2010:02:28T02:00:00 in file ww3.201002.nc
Writing new record hs       number    651 for 2010:02:28T02:00:00 in file ww3.201002.nc
Writing new record fp       number    651 for 2010:02:28T02:00:00 in file ww3.201002.nc
Writing new record dir      number    651 for 2010:02:28T02:00:00 in file ww3.201002.nc
Writing new record dp       number    651 for 2010:02:28T02:00:00 in file ww3.201002.nc
      Files for 2010/02/28 03:00:00 UTC
Writing new record dpt      number    652 for 2010:02:28T03:00:00 in file ww3.201002.nc
Writing new record wnd      number    652 for 2010:02:28T03:00:00 in file ww3.201002.nc
Writing new record hs       number    652 for 2010:02:28T03:00:00 in file ww3.201002.nc
Writing new record fp       number    652 for 2010:02:28T03:00:00 in file ww3.201002.nc
Writing new record dir      number    652 for 2010:02:28T03:00:00 in file ww3.201002.nc
Writing new record dp       number    652 for 2010:02:28T03:00:00 in file ww3.201002.nc
      Files for 2010/02/28 04:00:00 UTC
Writing new record dpt      number    653 for 2010:02:28T04:00:00 in file ww3.201002.nc
Writing new record wnd      number    653 for 2010:02:28T04:00:00 in file ww3.201002.nc
Writing new record hs       number    653 for 2010:02:28T04:00:00 in file ww3.201002.nc
Writing new record fp       number    653 for 2010:02:28T04:00:00 in file ww3.201002.nc
Writing new record dir      number    653 for 2010:02:28T04:00:00 in file ww3.201002.nc
Writing new record dp       number    653 for 2010:02:28T04:00:00 in file ww3.201002.nc
      Files for 2010/02/28 05:00:00 UTC
Writing new record dpt      number    654 for 2010:02:28T05:00:00 in file ww3.201002.nc
Writing new record wnd      number    654 for 2010:02:28T05:00:00 in file ww3.201002.nc
Writing new record hs       number    654 for 2010:02:28T05:00:00 in file ww3.201002.nc
Writing new record fp       number    654 for 2010:02:28T05:00:00 in file ww3.201002.nc
Writing new record dir      number    654 for 2010:02:28T05:00:00 in file ww3.201002.nc
Writing new record dp       number    654 for 2010:02:28T05:00:00 in file ww3.201002.nc
      Files for 2010/02/28 06:00:00 UTC
Writing new record dpt      number    655 for 2010:02:28T06:00:00 in file ww3.201002.nc
Writing new record wnd      number    655 for 2010:02:28T06:00:00 in file ww3.201002.nc
Writing new record hs       number    655 for 2010:02:28T06:00:00 in file ww3.201002.nc
Writing new record fp       number    655 for 2010:02:28T06:00:00 in file ww3.201002.nc
Writing new record dir      number    655 for 2010:02:28T06:00:00 in file ww3.201002.nc
Writing new record dp       number    655 for 2010:02:28T06:00:00 in file ww3.201002.nc
      Files for 2010/02/28 07:00:00 UTC
Writing new record dpt      number    656 for 2010:02:28T07:00:00 in file ww3.201002.nc
Writing new record wnd      number    656 for 2010:02:28T07:00:00 in file ww3.201002.nc
Writing new record hs       number    656 for 2010:02:28T07:00:00 in file ww3.201002.nc
Writing new record fp       number    656 for 2010:02:28T07:00:00 in file ww3.201002.nc
Writing new record dir      number    656 for 2010:02:28T07:00:00 in file ww3.201002.nc
Writing new record dp       number    656 for 2010:02:28T07:00:00 in file ww3.201002.nc
      Files for 2010/02/28 08:00:00 UTC
Writing new record dpt      number    657 for 2010:02:28T08:00:00 in file ww3.201002.nc
Writing new record wnd      number    657 for 2010:02:28T08:00:00 in file ww3.201002.nc
Writing new record hs       number    657 for 2010:02:28T08:00:00 in file ww3.201002.nc
Writing new record fp       number    657 for 2010:02:28T08:00:00 in file ww3.201002.nc
Writing new record dir      number    657 for 2010:02:28T08:00:00 in file ww3.201002.nc
Writing new record dp       number    657 for 2010:02:28T08:00:00 in file ww3.201002.nc
      Files for 2010/02/28 09:00:00 UTC
Writing new record dpt      number    658 for 2010:02:28T09:00:00 in file ww3.201002.nc
Writing new record wnd      number    658 for 2010:02:28T09:00:00 in file ww3.201002.nc
Writing new record hs       number    658 for 2010:02:28T09:00:00 in file ww3.201002.nc
Writing new record fp       number    658 for 2010:02:28T09:00:00 in file ww3.201002.nc
Writing new record dir      number    658 for 2010:02:28T09:00:00 in file ww3.201002.nc
Writing new record dp       number    658 for 2010:02:28T09:00:00 in file ww3.201002.nc
      Files for 2010/02/28 10:00:00 UTC
Writing new record dpt      number    659 for 2010:02:28T10:00:00 in file ww3.201002.nc
Writing new record wnd      number    659 for 2010:02:28T10:00:00 in file ww3.201002.nc
Writing new record hs       number    659 for 2010:02:28T10:00:00 in file ww3.201002.nc
Writing new record fp       number    659 for 2010:02:28T10:00:00 in file ww3.201002.nc
Writing new record dir      number    659 for 2010:02:28T10:00:00 in file ww3.201002.nc
Writing new record dp       number    659 for 2010:02:28T10:00:00 in file ww3.201002.nc
      Files for 2010/02/28 11:00:00 UTC
Writing new record dpt      number    660 for 2010:02:28T11:00:00 in file ww3.201002.nc
Writing new record wnd      number    660 for 2010:02:28T11:00:00 in file ww3.201002.nc
Writing new record hs       number    660 for 2010:02:28T11:00:00 in file ww3.201002.nc
Writing new record fp       number    660 for 2010:02:28T11:00:00 in file ww3.201002.nc
Writing new record dir      number    660 for 2010:02:28T11:00:00 in file ww3.201002.nc
Writing new record dp       number    660 for 2010:02:28T11:00:00 in file ww3.201002.nc
      Files for 2010/02/28 12:00:00 UTC
Writing new record dpt      number    661 for 2010:02:28T12:00:00 in file ww3.201002.nc
Writing new record wnd      number    661 for 2010:02:28T12:00:00 in file ww3.201002.nc
Writing new record hs       number    661 for 2010:02:28T12:00:00 in file ww3.201002.nc
Writing new record fp       number    661 for 2010:02:28T12:00:00 in file ww3.201002.nc
Writing new record dir      number    661 for 2010:02:28T12:00:00 in file ww3.201002.nc
Writing new record dp       number    661 for 2010:02:28T12:00:00 in file ww3.201002.nc
      Files for 2010/02/28 13:00:00 UTC
Writing new record dpt      number    662 for 2010:02:28T13:00:00 in file ww3.201002.nc
Writing new record wnd      number    662 for 2010:02:28T13:00:00 in file ww3.201002.nc
Writing new record hs       number    662 for 2010:02:28T13:00:00 in file ww3.201002.nc
Writing new record fp       number    662 for 2010:02:28T13:00:00 in file ww3.201002.nc
Writing new record dir      number    662 for 2010:02:28T13:00:00 in file ww3.201002.nc
Writing new record dp       number    662 for 2010:02:28T13:00:00 in file ww3.201002.nc
      Files for 2010/02/28 14:00:00 UTC
Writing new record dpt      number    663 for 2010:02:28T14:00:00 in file ww3.201002.nc
Writing new record wnd      number    663 for 2010:02:28T14:00:00 in file ww3.201002.nc
Writing new record hs       number    663 for 2010:02:28T14:00:00 in file ww3.201002.nc
Writing new record fp       number    663 for 2010:02:28T14:00:00 in file ww3.201002.nc
Writing new record dir      number    663 for 2010:02:28T14:00:00 in file ww3.201002.nc
Writing new record dp       number    663 for 2010:02:28T14:00:00 in file ww3.201002.nc
      Files for 2010/02/28 15:00:00 UTC
Writing new record dpt      number    664 for 2010:02:28T15:00:00 in file ww3.201002.nc
Writing new record wnd      number    664 for 2010:02:28T15:00:00 in file ww3.201002.nc
Writing new record hs       number    664 for 2010:02:28T15:00:00 in file ww3.201002.nc
Writing new record fp       number    664 for 2010:02:28T15:00:00 in file ww3.201002.nc
Writing new record dir      number    664 for 2010:02:28T15:00:00 in file ww3.201002.nc
Writing new record dp       number    664 for 2010:02:28T15:00:00 in file ww3.201002.nc
      Files for 2010/02/28 16:00:00 UTC
Writing new record dpt      number    665 for 2010:02:28T16:00:00 in file ww3.201002.nc
Writing new record wnd      number    665 for 2010:02:28T16:00:00 in file ww3.201002.nc
Writing new record hs       number    665 for 2010:02:28T16:00:00 in file ww3.201002.nc
Writing new record fp       number    665 for 2010:02:28T16:00:00 in file ww3.201002.nc
Writing new record dir      number    665 for 2010:02:28T16:00:00 in file ww3.201002.nc
Writing new record dp       number    665 for 2010:02:28T16:00:00 in file ww3.201002.nc
      Files for 2010/02/28 17:00:00 UTC
Writing new record dpt      number    666 for 2010:02:28T17:00:00 in file ww3.201002.nc
Writing new record wnd      number    666 for 2010:02:28T17:00:00 in file ww3.201002.nc
Writing new record hs       number    666 for 2010:02:28T17:00:00 in file ww3.201002.nc
Writing new record fp       number    666 for 2010:02:28T17:00:00 in file ww3.201002.nc
Writing new record dir      number    666 for 2010:02:28T17:00:00 in file ww3.201002.nc
Writing new record dp       number    666 for 2010:02:28T17:00:00 in file ww3.201002.nc
      Files for 2010/02/28 18:00:00 UTC
Writing new record dpt      number    667 for 2010:02:28T18:00:00 in file ww3.201002.nc
Writing new record wnd      number    667 for 2010:02:28T18:00:00 in file ww3.201002.nc
Writing new record hs       number    667 for 2010:02:28T18:00:00 in file ww3.201002.nc
Writing new record fp       number    667 for 2010:02:28T18:00:00 in file ww3.201002.nc
Writing new record dir      number    667 for 2010:02:28T18:00:00 in file ww3.201002.nc
Writing new record dp       number    667 for 2010:02:28T18:00:00 in file ww3.201002.nc
      Files for 2010/02/28 19:00:00 UTC
Writing new record dpt      number    668 for 2010:02:28T19:00:00 in file ww3.201002.nc
Writing new record wnd      number    668 for 2010:02:28T19:00:00 in file ww3.201002.nc
Writing new record hs       number    668 for 2010:02:28T19:00:00 in file ww3.201002.nc
Writing new record fp       number    668 for 2010:02:28T19:00:00 in file ww3.201002.nc
Writing new record dir      number    668 for 2010:02:28T19:00:00 in file ww3.201002.nc
Writing new record dp       number    668 for 2010:02:28T19:00:00 in file ww3.201002.nc
      Files for 2010/02/28 20:00:00 UTC
Writing new record dpt      number    669 for 2010:02:28T20:00:00 in file ww3.201002.nc
Writing new record wnd      number    669 for 2010:02:28T20:00:00 in file ww3.201002.nc
Writing new record hs       number    669 for 2010:02:28T20:00:00 in file ww3.201002.nc
Writing new record fp       number    669 for 2010:02:28T20:00:00 in file ww3.201002.nc
Writing new record dir      number    669 for 2010:02:28T20:00:00 in file ww3.201002.nc
Writing new record dp       number    669 for 2010:02:28T20:00:00 in file ww3.201002.nc
      Files for 2010/02/28 21:00:00 UTC
Writing new record dpt      number    670 for 2010:02:28T21:00:00 in file ww3.201002.nc
Writing new record wnd      number    670 for 2010:02:28T21:00:00 in file ww3.201002.nc
Writing new record hs       number    670 for 2010:02:28T21:00:00 in file ww3.201002.nc
Writing new record fp       number    670 for 2010:02:28T21:00:00 in file ww3.201002.nc
Writing new record dir      number    670 for 2010:02:28T21:00:00 in file ww3.201002.nc
Writing new record dp       number    670 for 2010:02:28T21:00:00 in file ww3.201002.nc
      Files for 2010/02/28 22:00:00 UTC
Writing new record dpt      number    671 for 2010:02:28T22:00:00 in file ww3.201002.nc
Writing new record wnd      number    671 for 2010:02:28T22:00:00 in file ww3.201002.nc
Writing new record hs       number    671 for 2010:02:28T22:00:00 in file ww3.201002.nc
Writing new record fp       number    671 for 2010:02:28T22:00:00 in file ww3.201002.nc
Writing new record dir      number    671 for 2010:02:28T22:00:00 in file ww3.201002.nc
Writing new record dp       number    671 for 2010:02:28T22:00:00 in file ww3.201002.nc
      Files for 2010/02/28 23:00:00 UTC
Writing new record dpt      number    672 for 2010:02:28T23:00:00 in file ww3.201002.nc
Writing new record wnd      number    672 for 2010:02:28T23:00:00 in file ww3.201002.nc
Writing new record hs       number    672 for 2010:02:28T23:00:00 in file ww3.201002.nc
Writing new record fp       number    672 for 2010:02:28T23:00:00 in file ww3.201002.nc
Writing new record dir      number    672 for 2010:02:28T23:00:00 in file ww3.201002.nc
Writing new record dp       number    672 for 2010:02:28T23:00:00 in file ww3.201002.nc

      End of file reached 


  End of program 
 =========================================
         WAVEWATCH III Field output 

